<additional>
    <tlLogic id="0" type="static" programID="1" offset="0">
        <phase duration="31" state="GrGr"/>
        <phase duration="6"  state="yryr"/>
        <phase duration="10" state="rrrG"/>
        <phase duration="21" state="rGrG"/>
        <phase duration="6"  state="ryry"/>
    </tlLogic>
</additional>
