<routes>
        <vType id="typeA" accel="0.8" decel="4.5" sigma="0.8" length="5" minGap="2.5" maxSpeed="20" guiShape="passenger/sedan "/>
        <vType id="typeB" accel="0.8" decel="4.5" sigma="0.6" length="7" minGap="3" maxSpeed="25" guiShape="bus"/>
        <vType id="typeC" accel="0.8" decel="4.5" sigma="0.9" length="3" minGap="1" maxSpeed="15" guiShape="passenger/hatchback"/>

        <route id="right" edges="51o 1i 2o 52i" />
        <route id="right_up" edges="51o 1i 4o 54i" />
        <route id="right_down" edges="51o 1i 3o 53i" />

        
        <route id="left" edges="52o 2i 1o 51i" />
        <route id="left_down" edges="52o 2i 3o 53i" />
        <route id="left_up" edges="52o 2i 4o 54i" />

        <route id="up" edges="53o 3i 4o 54i" />
        <route id="up_left" edges="53o 3i 1o 51i" />
        <route id="up_right" edges="53o 3i 2o 52i" />

        <route id="down" edges="54o 4i 3o 53i" />
        <route id="down_left" edges="54o 4i 3o 53i" />
        <route id="down_right" edges="54o 4i 1o 51i" />
    <vehicle id="right_up_0" type="typeB" route="right_up" depart="0" />
    <vehicle id="up_right_1" type="typeC" route="up_right" depart="1" />
    <vehicle id="right_2" type="typeC" route="right" depart="1" />
    <vehicle id="right_3" type="typeC" route="right" depart="2" />
    <vehicle id="right_down_4" type="typeC" route="right_down" depart="4" />
    <vehicle id="right_up_5" type="typeC" route="right_up" depart="8" />
    <vehicle id="right_up_6" type="typeC" route="right_up" depart="14" />
    <vehicle id="down_7" type="typeC" route="down" depart="19" />
    <vehicle id="right_down_8" type="typeC" route="right_down" depart="20" />
    <vehicle id="down_9" type="typeC" route="down" depart="21" />
    <vehicle id="up_right_10" type="typeC" route="up_right" depart="26" />
    <vehicle id="down_left_11" type="typeC" route="down_left" depart="28" />
    <vehicle id="left_12" type="typeC" route="left" depart="29" />
    <vehicle id="left_up_13" type="typeC" route="left_up" depart="30" />
    <vehicle id="right_14" type="typeC" route="right" depart="32" />
    <vehicle id="up_left_15" type="typeC" route="up_left" depart="34" />
    <vehicle id="right_up_16" type="typeC" route="right_up" depart="35" />
    <vehicle id="right_down_17" type="typeB" route="right_down" depart="37" />
    <vehicle id="right_up_18" type="typeC" route="right_up" depart="38" />
    <vehicle id="right_down_19" type="typeC" route="right_down" depart="42" />
    <vehicle id="right_20" type="typeC" route="right" depart="42" />
    <vehicle id="left_up_21" type="typeC" route="left_up" depart="45" />
    <vehicle id="right_22" type="typeC" route="right" depart="46" />
    <vehicle id="right_23" type="typeC" route="right" depart="48" />
    <vehicle id="right_24" type="typeC" route="right" depart="54" />
    <vehicle id="right_up_25" type="typeC" route="right_up" depart="60" />
    <vehicle id="right_26" type="typeC" route="right" depart="60" />
    <vehicle id="right_27" type="typeC" route="right" depart="64" />
    <vehicle id="right_28" type="typeC" route="right" depart="68" />
    <vehicle id="up_right_29" type="typeC" route="up_right" depart="73" />
    <vehicle id="right_up_30" type="typeC" route="right_up" depart="73" />
    <vehicle id="right_31" type="typeC" route="right" depart="73" />
    <vehicle id="right_32" type="typeC" route="right" depart="75" />
    <vehicle id="right_33" type="typeC" route="right" depart="82" />
    <vehicle id="left_up_34" type="typeC" route="left_up" depart="83" />
    <vehicle id="right_up_35" type="typeA" route="right_up" depart="84" />
    <vehicle id="left_36" type="typeC" route="left" depart="98" />
    <vehicle id="left_up_37" type="typeC" route="left_up" depart="99" />
    <vehicle id="right_down_38" type="typeC" route="right_down" depart="100" />
    <vehicle id="right_up_39" type="typeC" route="right_up" depart="102" />
    <vehicle id="right_40" type="typeC" route="right" depart="103" />
    <vehicle id="right_41" type="typeC" route="right" depart="128" />
    <vehicle id="down_42" type="typeC" route="down" depart="129" />
    <vehicle id="up_right_43" type="typeC" route="up_right" depart="131" />
    <vehicle id="down_44" type="typeC" route="down" depart="140" />
    <vehicle id="up_45" type="typeC" route="up" depart="141" />
    <vehicle id="right_46" type="typeC" route="right" depart="141" />
    <vehicle id="left_down_47" type="typeC" route="left_down" depart="146" />
    <vehicle id="right_48" type="typeC" route="right" depart="147" />
    <vehicle id="left_down_49" type="typeB" route="left_down" depart="151" />
    <vehicle id="right_down_50" type="typeB" route="right_down" depart="151" />
    <vehicle id="right_51" type="typeC" route="right" depart="153" />
    <vehicle id="right_52" type="typeC" route="right" depart="156" />
    <vehicle id="right_53" type="typeC" route="right" depart="158" />
    <vehicle id="right_54" type="typeC" route="right" depart="164" />
    <vehicle id="left_55" type="typeC" route="left" depart="166" />
    <vehicle id="right_56" type="typeC" route="right" depart="169" />
    <vehicle id="left_up_57" type="typeC" route="left_up" depart="173" />
    <vehicle id="up_58" type="typeC" route="up" depart="183" />
    <vehicle id="right_up_59" type="typeC" route="right_up" depart="183" />
    <vehicle id="down_left_60" type="typeC" route="down_left" depart="185" />
    <vehicle id="right_61" type="typeC" route="right" depart="185" />
    <vehicle id="right_down_62" type="typeC" route="right_down" depart="188" />
    <vehicle id="right_down_63" type="typeC" route="right_down" depart="195" />
    <vehicle id="left_64" type="typeC" route="left" depart="196" />
    <vehicle id="down_left_65" type="typeC" route="down_left" depart="197" />
    <vehicle id="right_66" type="typeC" route="right" depart="200" />
    <vehicle id="up_right_67" type="typeC" route="up_right" depart="209" />
    <vehicle id="right_68" type="typeC" route="right" depart="209" />
    <vehicle id="right_up_69" type="typeC" route="right_up" depart="217" />
    <vehicle id="right_up_70" type="typeC" route="right_up" depart="224" />
    <vehicle id="right_71" type="typeC" route="right" depart="226" />
    <vehicle id="right_up_72" type="typeC" route="right_up" depart="227" />
    <vehicle id="left_up_73" type="typeC" route="left_up" depart="229" />
    <vehicle id="right_up_74" type="typeC" route="right_up" depart="229" />
    <vehicle id="down_right_75" type="typeC" route="down_right" depart="237" />
    <vehicle id="right_up_76" type="typeC" route="right_up" depart="240" />
    <vehicle id="right_down_77" type="typeC" route="right_down" depart="243" />
    <vehicle id="left_78" type="typeC" route="left" depart="247" />
    <vehicle id="right_up_79" type="typeC" route="right_up" depart="249" />
    <vehicle id="left_80" type="typeC" route="left" depart="251" />
    <vehicle id="left_up_81" type="typeC" route="left_up" depart="261" />
    <vehicle id="left_down_82" type="typeC" route="left_down" depart="265" />
    <vehicle id="left_up_83" type="typeC" route="left_up" depart="267" />
    <vehicle id="right_up_84" type="typeC" route="right_up" depart="268" />
    <vehicle id="up_85" type="typeC" route="up" depart="269" />
    <vehicle id="right_86" type="typeC" route="right" depart="271" />
    <vehicle id="down_right_87" type="typeC" route="down_right" depart="275" />
    <vehicle id="right_down_88" type="typeC" route="right_down" depart="276" />
    <vehicle id="right_89" type="typeC" route="right" depart="276" />
    <vehicle id="right_90" type="typeC" route="right" depart="282" />
    <vehicle id="right_up_91" type="typeC" route="right_up" depart="283" />
    <vehicle id="left_down_92" type="typeC" route="left_down" depart="288" />
    <vehicle id="up_right_93" type="typeC" route="up_right" depart="291" />
    <vehicle id="right_94" type="typeC" route="right" depart="291" />
    <vehicle id="up_95" type="typeC" route="up" depart="293" />
    <vehicle id="down_right_96" type="typeC" route="down_right" depart="297" />
    <vehicle id="right_up_97" type="typeC" route="right_up" depart="304" />
    <vehicle id="right_98" type="typeC" route="right" depart="304" />
    <vehicle id="left_down_99" type="typeC" route="left_down" depart="307" />
    <vehicle id="down_100" type="typeC" route="down" depart="311" />
    <vehicle id="left_down_101" type="typeC" route="left_down" depart="311" />
    <vehicle id="right_102" type="typeC" route="right" depart="311" />
    <vehicle id="down_left_103" type="typeC" route="down_left" depart="312" />
    <vehicle id="up_104" type="typeC" route="up" depart="318" />
    <vehicle id="right_105" type="typeC" route="right" depart="318" />
    <vehicle id="right_down_106" type="typeC" route="right_down" depart="321" />
    <vehicle id="right_down_107" type="typeC" route="right_down" depart="329" />
    <vehicle id="right_108" type="typeC" route="right" depart="334" />
    <vehicle id="right_up_109" type="typeC" route="right_up" depart="335" />
    <vehicle id="left_110" type="typeC" route="left" depart="336" />
    <vehicle id="right_down_111" type="typeA" route="right_down" depart="337" />
    <vehicle id="up_112" type="typeC" route="up" depart="338" />
    <vehicle id="right_113" type="typeC" route="right" depart="338" />
    <vehicle id="right_114" type="typeC" route="right" depart="339" />
    <vehicle id="down_115" type="typeC" route="down" depart="353" />
    <vehicle id="right_up_116" type="typeC" route="right_up" depart="354" />
    <vehicle id="up_left_117" type="typeC" route="up_left" depart="358" />
    <vehicle id="down_left_118" type="typeC" route="down_left" depart="359" />
    <vehicle id="left_119" type="typeC" route="left" depart="359" />
    <vehicle id="right_up_120" type="typeB" route="right_up" depart="362" />
    <vehicle id="right_down_121" type="typeC" route="right_down" depart="363" />
    <vehicle id="left_up_122" type="typeC" route="left_up" depart="366" />
    <vehicle id="right_up_123" type="typeC" route="right_up" depart="367" />
    <vehicle id="right_124" type="typeC" route="right" depart="370" />
    <vehicle id="down_125" type="typeC" route="down" depart="375" />
    <vehicle id="up_126" type="typeC" route="up" depart="377" />
    <vehicle id="right_127" type="typeC" route="right" depart="380" />
    <vehicle id="left_down_128" type="typeC" route="left_down" depart="388" />
    <vehicle id="right_129" type="typeC" route="right" depart="390" />
    <vehicle id="left_up_130" type="typeC" route="left_up" depart="393" />
    <vehicle id="right_131" type="typeC" route="right" depart="394" />
    <vehicle id="left_132" type="typeC" route="left" depart="400" />
    <vehicle id="right_up_133" type="typeC" route="right_up" depart="400" />
    <vehicle id="right_134" type="typeC" route="right" depart="401" />
    <vehicle id="up_left_135" type="typeC" route="up_left" depart="402" />
    <vehicle id="right_136" type="typeC" route="right" depart="408" />
    <vehicle id="right_up_137" type="typeB" route="right_up" depart="409" />
    <vehicle id="left_138" type="typeC" route="left" depart="410" />
    <vehicle id="left_down_139" type="typeC" route="left_down" depart="420" />
    <vehicle id="right_down_140" type="typeC" route="right_down" depart="422" />
    <vehicle id="right_up_141" type="typeC" route="right_up" depart="426" />
    <vehicle id="right_142" type="typeC" route="right" depart="426" />
    <vehicle id="right_143" type="typeC" route="right" depart="427" />
    <vehicle id="right_up_144" type="typeC" route="right_up" depart="428" />
    <vehicle id="right_145" type="typeC" route="right" depart="429" />
    <vehicle id="right_down_146" type="typeC" route="right_down" depart="430" />
    <vehicle id="right_147" type="typeC" route="right" depart="435" />
    <vehicle id="right_148" type="typeB" route="right" depart="438" />
    <vehicle id="right_149" type="typeC" route="right" depart="439" />
    <vehicle id="right_down_150" type="typeC" route="right_down" depart="445" />
    <vehicle id="right_up_151" type="typeC" route="right_up" depart="445" />
    <vehicle id="right_152" type="typeC" route="right" depart="449" />
    <vehicle id="right_153" type="typeC" route="right" depart="453" />
    <vehicle id="left_down_154" type="typeC" route="left_down" depart="454" />
    <vehicle id="left_155" type="typeC" route="left" depart="461" />
    <vehicle id="down_right_156" type="typeC" route="down_right" depart="467" />
    <vehicle id="right_up_157" type="typeC" route="right_up" depart="467" />
    <vehicle id="right_up_158" type="typeC" route="right_up" depart="471" />
    <vehicle id="left_down_159" type="typeC" route="left_down" depart="474" />
    <vehicle id="right_up_160" type="typeC" route="right_up" depart="481" />
    <vehicle id="right_161" type="typeC" route="right" depart="481" />
    <vehicle id="right_162" type="typeC" route="right" depart="484" />
    <vehicle id="right_163" type="typeC" route="right" depart="489" />
    <vehicle id="right_up_164" type="typeC" route="right_up" depart="491" />
    <vehicle id="right_165" type="typeC" route="right" depart="491" />
    <vehicle id="left_166" type="typeC" route="left" depart="494" />
    <vehicle id="right_167" type="typeC" route="right" depart="494" />
    <vehicle id="up_left_168" type="typeC" route="up_left" depart="496" />
    <vehicle id="right_169" type="typeC" route="right" depart="498" />
    <vehicle id="right_up_170" type="typeC" route="right_up" depart="503" />
    <vehicle id="right_171" type="typeC" route="right" depart="504" />
    <vehicle id="right_172" type="typeC" route="right" depart="508" />
    <vehicle id="down_173" type="typeC" route="down" depart="513" />
    <vehicle id="left_down_174" type="typeC" route="left_down" depart="513" />
    <vehicle id="down_175" type="typeA" route="down" depart="516" />
    <vehicle id="right_176" type="typeC" route="right" depart="517" />
    <vehicle id="up_177" type="typeC" route="up" depart="522" />
    <vehicle id="right_down_178" type="typeC" route="right_down" depart="522" />
    <vehicle id="right_179" type="typeC" route="right" depart="523" />
    <vehicle id="right_up_180" type="typeC" route="right_up" depart="524" />
    <vehicle id="right_181" type="typeC" route="right" depart="524" />
    <vehicle id="right_182" type="typeC" route="right" depart="525" />
    <vehicle id="down_183" type="typeC" route="down" depart="526" />
    <vehicle id="right_up_184" type="typeC" route="right_up" depart="528" />
    <vehicle id="right_down_185" type="typeC" route="right_down" depart="530" />
    <vehicle id="right_down_186" type="typeC" route="right_down" depart="531" />
    <vehicle id="right_up_187" type="typeC" route="right_up" depart="532" />
    <vehicle id="right_up_188" type="typeC" route="right_up" depart="534" />
    <vehicle id="left_189" type="typeC" route="left" depart="540" />
    <vehicle id="right_down_190" type="typeB" route="right_down" depart="543" />
    <vehicle id="left_191" type="typeC" route="left" depart="547" />
    <vehicle id="right_down_192" type="typeC" route="right_down" depart="551" />
    <vehicle id="right_down_193" type="typeC" route="right_down" depart="552" />
    <vehicle id="up_left_194" type="typeC" route="up_left" depart="554" />
    <vehicle id="right_up_195" type="typeC" route="right_up" depart="559" />
    <vehicle id="down_right_196" type="typeC" route="down_right" depart="562" />
    <vehicle id="left_up_197" type="typeC" route="left_up" depart="564" />
    <vehicle id="right_up_198" type="typeC" route="right_up" depart="565" />
    <vehicle id="right_199" type="typeC" route="right" depart="567" />
    <vehicle id="right_up_200" type="typeC" route="right_up" depart="568" />
    <vehicle id="left_up_201" type="typeC" route="left_up" depart="573" />
    <vehicle id="right_202" type="typeC" route="right" depart="573" />
    <vehicle id="left_down_203" type="typeC" route="left_down" depart="576" />
    <vehicle id="right_204" type="typeC" route="right" depart="578" />
    <vehicle id="up_right_205" type="typeC" route="up_right" depart="582" />
    <vehicle id="right_206" type="typeA" route="right" depart="591" />
    <vehicle id="right_207" type="typeC" route="right" depart="592" />
    <vehicle id="up_208" type="typeC" route="up" depart="594" />
    <vehicle id="left_209" type="typeC" route="left" depart="611" />
    <vehicle id="up_210" type="typeC" route="up" depart="616" />
    <vehicle id="left_211" type="typeC" route="left" depart="619" />
    <vehicle id="right_212" type="typeB" route="right" depart="622" />
    <vehicle id="right_213" type="typeC" route="right" depart="627" />
    <vehicle id="right_214" type="typeC" route="right" depart="629" />
    <vehicle id="left_up_215" type="typeC" route="left_up" depart="632" />
    <vehicle id="up_right_216" type="typeC" route="up_right" depart="635" />
    <vehicle id="up_217" type="typeC" route="up" depart="635" />
    <vehicle id="down_218" type="typeA" route="down" depart="639" />
    <vehicle id="right_down_219" type="typeC" route="right_down" depart="641" />
    <vehicle id="right_up_220" type="typeC" route="right_up" depart="642" />
    <vehicle id="right_221" type="typeB" route="right" depart="643" />
    <vehicle id="right_down_222" type="typeC" route="right_down" depart="649" />
    <vehicle id="left_223" type="typeC" route="left" depart="654" />
    <vehicle id="right_224" type="typeC" route="right" depart="654" />
    <vehicle id="down_right_225" type="typeC" route="down_right" depart="656" />
    <vehicle id="up_226" type="typeC" route="up" depart="657" />
    <vehicle id="down_227" type="typeC" route="down" depart="661" />
    <vehicle id="right_up_228" type="typeC" route="right_up" depart="664" />
    <vehicle id="down_right_229" type="typeC" route="down_right" depart="668" />
    <vehicle id="right_230" type="typeC" route="right" depart="672" />
    <vehicle id="left_231" type="typeC" route="left" depart="673" />
    <vehicle id="down_left_232" type="typeA" route="down_left" depart="678" />
    <vehicle id="right_up_233" type="typeC" route="right_up" depart="681" />
    <vehicle id="right_234" type="typeC" route="right" depart="684" />
    <vehicle id="up_left_235" type="typeC" route="up_left" depart="690" />
    <vehicle id="left_down_236" type="typeC" route="left_down" depart="694" />
    <vehicle id="right_237" type="typeC" route="right" depart="694" />
    <vehicle id="down_left_238" type="typeC" route="down_left" depart="695" />
    <vehicle id="right_down_239" type="typeC" route="right_down" depart="698" />
    <vehicle id="right_240" type="typeC" route="right" depart="699" />
    <vehicle id="right_up_241" type="typeC" route="right_up" depart="700" />
    <vehicle id="right_242" type="typeC" route="right" depart="701" />
    <vehicle id="down_left_243" type="typeC" route="down_left" depart="702" />
    <vehicle id="right_244" type="typeC" route="right" depart="704" />
    <vehicle id="right_245" type="typeC" route="right" depart="712" />
    <vehicle id="right_246" type="typeC" route="right" depart="714" />
    <vehicle id="right_up_247" type="typeC" route="right_up" depart="716" />
    <vehicle id="right_up_248" type="typeC" route="right_up" depart="718" />
    <vehicle id="up_249" type="typeC" route="up" depart="719" />
    <vehicle id="right_250" type="typeC" route="right" depart="719" />
    <vehicle id="right_up_251" type="typeC" route="right_up" depart="723" />
    <vehicle id="left_up_252" type="typeC" route="left_up" depart="726" />
    <vehicle id="right_up_253" type="typeC" route="right_up" depart="729" />
    <vehicle id="right_down_254" type="typeC" route="right_down" depart="737" />
    <vehicle id="left_down_255" type="typeC" route="left_down" depart="743" />
    <vehicle id="right_down_256" type="typeC" route="right_down" depart="743" />
    <vehicle id="left_down_257" type="typeC" route="left_down" depart="746" />
    <vehicle id="left_258" type="typeC" route="left" depart="747" />
    <vehicle id="right_259" type="typeC" route="right" depart="750" />
    <vehicle id="right_260" type="typeB" route="right" depart="754" />
    <vehicle id="left_261" type="typeC" route="left" depart="755" />
    <vehicle id="up_262" type="typeC" route="up" depart="757" />
    <vehicle id="right_263" type="typeA" route="right" depart="760" />
    <vehicle id="right_264" type="typeC" route="right" depart="763" />
    <vehicle id="right_265" type="typeC" route="right" depart="765" />
    <vehicle id="right_up_266" type="typeC" route="right_up" depart="767" />
    <vehicle id="right_up_267" type="typeC" route="right_up" depart="769" />
    <vehicle id="left_268" type="typeC" route="left" depart="770" />
    <vehicle id="right_269" type="typeC" route="right" depart="770" />
    <vehicle id="right_down_270" type="typeC" route="right_down" depart="772" />
    <vehicle id="right_271" type="typeC" route="right" depart="773" />
    <vehicle id="left_272" type="typeC" route="left" depart="775" />
    <vehicle id="right_273" type="typeC" route="right" depart="780" />
    <vehicle id="down_left_274" type="typeC" route="down_left" depart="781" />
    <vehicle id="right_up_275" type="typeC" route="right_up" depart="781" />
    <vehicle id="left_down_276" type="typeC" route="left_down" depart="784" />
    <vehicle id="right_277" type="typeC" route="right" depart="784" />
    <vehicle id="right_278" type="typeC" route="right" depart="786" />
    <vehicle id="up_279" type="typeC" route="up" depart="789" />
    <vehicle id="right_up_280" type="typeC" route="right_up" depart="791" />
    <vehicle id="right_up_281" type="typeC" route="right_up" depart="792" />
    <vehicle id="right_up_282" type="typeC" route="right_up" depart="797" />
    <vehicle id="left_down_283" type="typeC" route="left_down" depart="798" />
    <vehicle id="left_down_284" type="typeC" route="left_down" depart="800" />
    <vehicle id="right_285" type="typeC" route="right" depart="804" />
    <vehicle id="down_left_286" type="typeC" route="down_left" depart="807" />
    <vehicle id="right_287" type="typeC" route="right" depart="807" />
    <vehicle id="right_288" type="typeC" route="right" depart="809" />
    <vehicle id="right_down_289" type="typeC" route="right_down" depart="813" />
    <vehicle id="right_up_290" type="typeC" route="right_up" depart="815" />
    <vehicle id="right_291" type="typeC" route="right" depart="817" />
    <vehicle id="right_up_292" type="typeC" route="right_up" depart="827" />
    <vehicle id="right_down_293" type="typeC" route="right_down" depart="829" />
    <vehicle id="right_294" type="typeC" route="right" depart="829" />
    <vehicle id="right_295" type="typeC" route="right" depart="830" />
    <vehicle id="up_left_296" type="typeC" route="up_left" depart="832" />
    <vehicle id="left_up_297" type="typeC" route="left_up" depart="832" />
    <vehicle id="right_up_298" type="typeC" route="right_up" depart="833" />
    <vehicle id="down_299" type="typeC" route="down" depart="837" />
    <vehicle id="right_300" type="typeC" route="right" depart="840" />
    <vehicle id="up_301" type="typeC" route="up" depart="841" />
    <vehicle id="right_302" type="typeC" route="right" depart="844" />
    <vehicle id="right_303" type="typeC" route="right" depart="847" />
    <vehicle id="up_left_304" type="typeC" route="up_left" depart="851" />
    <vehicle id="right_305" type="typeC" route="right" depart="851" />
    <vehicle id="left_down_306" type="typeC" route="left_down" depart="853" />
    <vehicle id="right_down_307" type="typeC" route="right_down" depart="859" />
    <vehicle id="right_308" type="typeC" route="right" depart="859" />
    <vehicle id="right_up_309" type="typeC" route="right_up" depart="860" />
    <vehicle id="right_310" type="typeC" route="right" depart="869" />
    <vehicle id="right_up_311" type="typeC" route="right_up" depart="871" />
    <vehicle id="left_312" type="typeC" route="left" depart="874" />
    <vehicle id="right_313" type="typeC" route="right" depart="874" />
    <vehicle id="down_314" type="typeC" route="down" depart="875" />
    <vehicle id="right_up_315" type="typeC" route="right_up" depart="876" />
    <vehicle id="right_316" type="typeC" route="right" depart="876" />
    <vehicle id="left_down_317" type="typeC" route="left_down" depart="880" />
    <vehicle id="right_318" type="typeC" route="right" depart="882" />
    <vehicle id="up_319" type="typeC" route="up" depart="883" />
    <vehicle id="right_up_320" type="typeC" route="right_up" depart="883" />
    <vehicle id="right_321" type="typeC" route="right" depart="888" />
    <vehicle id="down_left_322" type="typeC" route="down_left" depart="899" />
    <vehicle id="right_up_323" type="typeB" route="right_up" depart="904" />
    <vehicle id="right_324" type="typeC" route="right" depart="905" />
    <vehicle id="right_325" type="typeC" route="right" depart="907" />
    <vehicle id="up_right_326" type="typeC" route="up_right" depart="908" />
    <vehicle id="up_left_327" type="typeC" route="up_left" depart="908" />
    <vehicle id="left_328" type="typeC" route="left" depart="909" />
    <vehicle id="right_329" type="typeC" route="right" depart="909" />
    <vehicle id="right_330" type="typeC" route="right" depart="910" />
    <vehicle id="up_left_331" type="typeC" route="up_left" depart="913" />
    <vehicle id="right_up_332" type="typeC" route="right_up" depart="914" />
    <vehicle id="right_down_333" type="typeC" route="right_down" depart="915" />
    <vehicle id="right_334" type="typeC" route="right" depart="916" />
    <vehicle id="right_335" type="typeC" route="right" depart="917" />
    <vehicle id="up_336" type="typeC" route="up" depart="918" />
    <vehicle id="right_337" type="typeC" route="right" depart="918" />
    <vehicle id="down_338" type="typeC" route="down" depart="924" />
    <vehicle id="right_down_339" type="typeA" route="right_down" depart="930" />
    <vehicle id="down_340" type="typeC" route="down" depart="935" />
    <vehicle id="up_341" type="typeC" route="up" depart="935" />
    <vehicle id="left_down_342" type="typeC" route="left_down" depart="935" />
    <vehicle id="right_343" type="typeC" route="right" depart="935" />
    <vehicle id="right_up_344" type="typeA" route="right_up" depart="938" />
    <vehicle id="right_345" type="typeC" route="right" depart="939" />
    <vehicle id="left_346" type="typeC" route="left" depart="945" />
    <vehicle id="right_347" type="typeC" route="right" depart="945" />
    <vehicle id="left_down_348" type="typeC" route="left_down" depart="946" />
    <vehicle id="left_349" type="typeC" route="left" depart="946" />
    <vehicle id="up_350" type="typeB" route="up" depart="950" />
    <vehicle id="up_right_351" type="typeC" route="up_right" depart="952" />
    <vehicle id="right_352" type="typeC" route="right" depart="953" />
    <vehicle id="up_right_353" type="typeC" route="up_right" depart="956" />
    <vehicle id="right_down_354" type="typeC" route="right_down" depart="956" />
    <vehicle id="down_355" type="typeC" route="down" depart="968" />
    <vehicle id="down_356" type="typeC" route="down" depart="978" />
    <vehicle id="left_up_357" type="typeC" route="left_up" depart="978" />
    <vehicle id="right_up_358" type="typeC" route="right_up" depart="978" />
    <vehicle id="right_359" type="typeC" route="right" depart="979" />
    <vehicle id="right_down_360" type="typeB" route="right_down" depart="982" />
    <vehicle id="right_up_361" type="typeC" route="right_up" depart="985" />
    <vehicle id="down_362" type="typeC" route="down" depart="988" />
    <vehicle id="up_left_363" type="typeC" route="up_left" depart="994" />
    <vehicle id="right_364" type="typeA" route="right" depart="995" />
    <vehicle id="right_down_365" type="typeC" route="right_down" depart="1001" />
    <vehicle id="down_right_366" type="typeC" route="down_right" depart="1003" />
    <vehicle id="right_up_367" type="typeC" route="right_up" depart="1005" />
    <vehicle id="left_down_368" type="typeC" route="left_down" depart="1008" />
    <vehicle id="right_369" type="typeA" route="right" depart="1010" />
    <vehicle id="down_left_370" type="typeB" route="down_left" depart="1014" />
    <vehicle id="right_371" type="typeC" route="right" depart="1016" />
    <vehicle id="left_down_372" type="typeB" route="left_down" depart="1021" />
    <vehicle id="right_up_373" type="typeC" route="right_up" depart="1024" />
    <vehicle id="right_374" type="typeC" route="right" depart="1024" />
    <vehicle id="up_left_375" type="typeC" route="up_left" depart="1030" />
    <vehicle id="right_up_376" type="typeC" route="right_up" depart="1030" />
    <vehicle id="right_up_377" type="typeC" route="right_up" depart="1035" />
    <vehicle id="right_378" type="typeC" route="right" depart="1041" />
    <vehicle id="up_right_379" type="typeC" route="up_right" depart="1044" />
    <vehicle id="left_380" type="typeC" route="left" depart="1044" />
    <vehicle id="left_down_381" type="typeC" route="left_down" depart="1047" />
    <vehicle id="right_down_382" type="typeB" route="right_down" depart="1049" />
    <vehicle id="right_up_383" type="typeC" route="right_up" depart="1050" />
    <vehicle id="right_384" type="typeC" route="right" depart="1051" />
    <vehicle id="left_down_385" type="typeC" route="left_down" depart="1054" />
    <vehicle id="left_386" type="typeC" route="left" depart="1059" />