<additional>
    <tlLogic id="0" type="static" programID="custom2" offset="0">
        <phase duration="500" state="grrrrgrrrrGGGGGgrrrr"/>
        <phase duration="500" state="gGGrrgrrrrgGGrrgrrrr"/>
        <phase duration="500" state="GGGGGgrrrrgrrrrgrrrr"/>
        <phase duration="500" state="grrrrGGGGGgrrrrgrrrr"/>
        <phase duration="500" state="grrrrgGGrrgrrrrgGGrr"/>
        <phase duration="500" state="grrrrgrrrrgrrrrGGGGG"/>
    </tlLogic>
    <tlLogic id="1" type="static" programID="custom2" offset="0">
        <phase duration="500" state="grrrrgrrrrGGGGGgrrrr"/>
        <phase duration="500" state="gGGrrgrrrrgGGrrgrrrr"/>
        <phase duration="500" state="GGGGGgrrrrgrrrrgrrrr"/>
        <phase duration="500" state="grrrrGGGGGgrrrrgrrrr"/>
        <phase duration="500" state="grrrrgGGrrgrrrrgGGrr"/>
        <phase duration="500" state="grrrrgrrrrgrrrrGGGGG"/>
    </tlLogic>
    <tlLogic id="2" type="static" programID="custom2" offset="0">
        <phase duration="500" state="grrrrgrrrrGGGGGgrrrr"/>
        <phase duration="500" state="gGGrrgrrrrgGGrrgrrrr"/>
        <phase duration="500" state="GGGGGgrrrrgrrrrgrrrr"/>
        <phase duration="500" state="grrrrGGGGGgrrrrgrrrr"/>
        <phase duration="500" state="grrrrgGGrrgrrrrgGGrr"/>
        <phase duration="500" state="grrrrgrrrrgrrrrGGGGG"/>
    </tlLogic>
    <tlLogic id="3" type="static" programID="custom2" offset="0">
        <phase duration="500" state="grrrrgrrrrGGGGGgrrrr"/>
        <phase duration="500" state="gGGrrgrrrrgGGrrgrrrr"/>
        <phase duration="500" state="GGGGGgrrrrgrrrrgrrrr"/>
        <phase duration="500" state="grrrrGGGGGgrrrrgrrrr"/>
        <phase duration="500" state="grrrrgGGrrgrrrrgGGrr"/>
        <phase duration="500" state="grrrrgrrrrgrrrrGGGGG"/>
    </tlLogic>
</additional>
