<additional>
    <tlLogic id="0" type="static" programID="custom" offset="0">
        <phase duration="100" state="grrrrgrrrrGGGGGgrrrr"/>
        <phase duration="100" state="gGGrrgrrrrgGGrrgrrrr"/>
        <phase duration="100" state="GGGGGgrrrrgrrrrgrrrr"/>
        <phase duration="100" state="grrrrGGGGGgrrrrgrrrr"/>
        <phase duration="100" state="grrrrgGGrrgrrrrgGGrr"/>
        <phase duration="100" state="grrrrgrrrrgrrrrGGGGG"/>
    </tlLogic>
    <tlLogic id="1" type="static" programID="custom" offset="0">
        <phase duration="100" state="grrrrgrrrrGGGGGgrrrr"/>
        <phase duration="100" state="gGGrrgrrrrgGGrrgrrrr"/>
        <phase duration="100" state="GGGGGgrrrrgrrrrgrrrr"/>
        <phase duration="100" state="grrrrGGGGGgrrrrgrrrr"/>
        <phase duration="100" state="grrrrgGGrrgrrrrgGGrr"/>
        <phase duration="100" state="grrrrgrrrrgrrrrGGGGG"/>
    </tlLogic>
    <tlLogic id="2" type="static" programID="custom" offset="0">
        <phase duration="100" state="grrrrgrrrrGGGGGgrrrr"/>
        <phase duration="100" state="gGGrrgrrrrgGGrrgrrrr"/>
        <phase duration="100" state="GGGGGgrrrrgrrrrgrrrr"/>
        <phase duration="100" state="grrrrGGGGGgrrrrgrrrr"/>
        <phase duration="100" state="grrrrgGGrrgrrrrgGGrr"/>
        <phase duration="100" state="grrrrgrrrrgrrrrGGGGG"/>
    </tlLogic>
    <tlLogic id="3" type="static" programID="custom" offset="0">
        <phase duration="100" state="grrrrgrrrrGGGGGgrrrr"/>
        <phase duration="100" state="gGGrrgrrrrgGGrrgrrrr"/>
        <phase duration="100" state="GGGGGgrrrrgrrrrgrrrr"/>
        <phase duration="100" state="grrrrGGGGGgrrrrgrrrr"/>
        <phase duration="100" state="grrrrgGGrrgrrrrgGGrr"/>
        <phase duration="100" state="grrrrgrrrrgrrrrGGGGG"/>
    </tlLogic>
</additional>