<?xml version="1.0" encoding="UTF-8"?>

<!-- generated on 28-05-2017 18:06:38 by Netedit Version 0.29.0
<?xml version="1.0" encoding="UTF-8"?>

<configuration xmlns:xsi="http://www.w3.org/2001/XMLSchema-instance" xsi:noNamespaceSchemaLocation="http://sumo.dlr.de/xsd/netedit.exeConfiguration.xsd">

    <input>
        <sumo-net-file value="cross.net.xml"/>
    </input>

    <output>
        <output-file value="cross.net.xml"/>
    </output>

    <processing>
        <no-turnarounds value="true"/>
        <offset.disable-normalization value="true"/>
        <lefthand value="true"/>
        <junctions.corner-detail value="0"/>
    </processing>

</configuration>
-->

<net version="0.27" lefthand="true" xmlns:xsi="http://www.w3.org/2001/XMLSchema-instance" xsi:noNamespaceSchemaLocation="http://sumo.dlr.de/xsd/net_file.xsd">

    <location netOffset="0.00,-0.00" convBoundary="-384.00,-383.67,784.83,783.50" origBoundary="0.00,0.00,400.00,400.00" projParameter="!"/>

    <edge id=":0_0" function="internal">
        <lane id=":0_0_0" index="0" speed="13.90" length="6.45" width="5.00" shape="-7.68,388.10 -7.93,389.85 -8.67,391.10 -9.92,391.85 -11.68,392.10"/>
    </edge>
    <edge id=":0_1" function="internal">
        <lane id=":0_1_0" index="0" speed="13.90" length="23.32" width="5.00" shape="-7.68,388.10 -7.66,411.41"/>
        <lane id=":0_1_1" index="1" speed="13.90" length="23.32" width="5.00" shape="-2.58,388.09 -2.56,411.41"/>
    </edge>
    <edge id=":0_3" function="internal">
        <lane id=":0_3_0" index="0" speed="13.90" length="22.93" width="5.00" shape="-2.58,388.09 -1.68,394.31 0.99,398.75 5.43,401.42 11.65,402.31"/>
    </edge>
    <edge id=":0_4" function="internal">
        <lane id=":0_4_0" index="0" speed="13.90" length="3.72" width="5.00" shape="-2.58,388.09 -1.30,390.00 -0.02,390.63"/>
    </edge>
    <edge id=":0_20" function="internal">
        <lane id=":0_20_0" index="0" speed="13.90" length="3.72" width="5.00" shape="-0.02,390.63 1.25,389.99 2.52,388.08"/>
    </edge>
    <edge id=":0_5" function="internal">
        <lane id=":0_5_0" index="0" speed="13.90" length="6.51" width="5.00" shape="11.66,392.11 9.90,391.86 8.63,391.10 7.88,389.84 7.62,388.07"/>
    </edge>
    <edge id=":0_6" function="internal">
        <lane id=":0_6_0" index="0" speed="13.90" length="23.33" width="5.00" shape="11.66,392.11 -11.68,392.10"/>
        <lane id=":0_6_1" index="1" speed="13.90" length="23.33" width="5.00" shape="11.65,397.21 -11.68,397.20"/>
    </edge>
    <edge id=":0_8" function="internal">
        <lane id=":0_8_0" index="0" speed="13.90" length="13.52" width="5.00" shape="11.65,397.21 5.44,398.09 0.99,400.75 -0.07,402.52"/>
    </edge>
    <edge id=":0_9" function="internal">
        <lane id=":0_9_0" index="0" speed="13.90" length="7.45" width="5.00" shape="11.65,397.21 9.74,398.49 9.10,399.76 9.74,401.04 11.65,402.31"/>
    </edge>
    <edge id=":0_21" function="internal">
        <lane id=":0_21_0" index="0" speed="13.90" length="9.40" width="5.00" shape="-0.07,402.52 -1.67,405.19 -2.56,411.41"/>
    </edge>
    <edge id=":0_10" function="internal">
        <lane id=":0_10_0" index="0" speed="13.90" length="6.45" width="5.00" shape="7.64,411.41 7.89,409.66 8.64,408.41 9.89,407.66 11.64,407.41"/>
    </edge>
    <edge id=":0_11" function="internal">
        <lane id=":0_11_0" index="0" speed="13.90" length="23.34" width="5.00" shape="7.64,411.41 7.62,388.07"/>
        <lane id=":0_11_1" index="1" speed="13.90" length="23.34" width="5.00" shape="2.54,411.41 2.52,388.08"/>
    </edge>
    <edge id=":0_13" function="internal">
        <lane id=":0_13_0" index="0" speed="13.89" length="22.92" width="5.00" shape="2.54,411.41 1.65,405.19 -1.01,400.75 -5.46,398.09 -11.68,397.20"/>
    </edge>
    <edge id=":0_14" function="internal">
        <lane id=":0_14_0" index="0" speed="13.89" length="3.72" width="5.00" shape="2.54,411.41 1.26,409.50 -0.01,408.86"/>
    </edge>
    <edge id=":0_22" function="internal">
        <lane id=":0_22_0" index="0" speed="13.89" length="3.72" width="5.00" shape="-0.01,408.86 -1.29,409.50 -2.56,411.41"/>
    </edge>
    <edge id=":0_15" function="internal">
        <lane id=":0_15_0" index="0" speed="13.89" length="6.47" width="5.00" shape="-11.68,407.40 -9.92,407.65 -8.66,408.40 -7.91,409.66 -7.66,411.41"/>
    </edge>
    <edge id=":0_16" function="internal">
        <lane id=":0_16_0" index="0" speed="13.90" length="23.32" width="5.00" shape="-11.68,407.40 11.64,407.41"/>
        <lane id=":0_16_1" index="1" speed="13.90" length="23.32" width="5.00" shape="-11.68,402.30 11.65,402.31"/>
    </edge>
    <edge id=":0_18" function="internal">
        <lane id=":0_18_0" index="0" speed="13.90" length="6.68" width="5.00" shape="-11.68,402.30 -5.46,401.41 -5.12,401.21"/>
    </edge>
    <edge id=":0_19" function="internal">
        <lane id=":0_19_0" index="0" speed="13.89" length="3.37" width="5.00" shape="-11.68,402.30 -9.76,401.02 -9.28,400.07"/>
    </edge>
    <edge id=":0_23" function="internal">
        <lane id=":0_23_0" index="0" speed="13.90" length="16.24" width="5.00" shape="-5.12,401.21 -1.02,398.74 1.64,394.30 2.52,388.08"/>
    </edge>
    <edge id=":0_24" function="internal">
        <lane id=":0_24_0" index="0" speed="13.89" length="4.08" width="5.00" shape="-9.28,400.07 -9.13,399.75 -9.76,398.47 -11.68,397.20"/>
    </edge>
    <edge id=":1_0" function="internal">
        <lane id=":1_0_0" index="0" speed="13.90" length="6.49" width="5.00" shape="391.73,388.50 391.48,390.27 390.73,391.53 389.47,392.29 387.72,392.54"/>
    </edge>
    <edge id=":1_1" function="internal">
        <lane id=":1_1_0" index="0" speed="13.90" length="23.35" width="5.00" shape="391.73,388.50 391.70,411.85"/>
        <lane id=":1_1_1" index="1" speed="13.90" length="23.35" width="5.00" shape="396.83,388.51 396.80,411.85"/>
    </edge>
    <edge id=":1_3" function="internal">
        <lane id=":1_3_0" index="0" speed="13.90" length="13.52" width="5.00" shape="396.83,388.51 397.71,394.74 400.36,399.19 402.12,400.25"/>
    </edge>
    <edge id=":1_4" function="internal">
        <lane id=":1_4_0" index="0" speed="13.90" length="7.45" width="5.00" shape="396.83,388.51 398.10,390.43 399.38,391.07 400.65,390.44 401.93,388.53"/>
    </edge>
    <edge id=":1_20" function="internal">
        <lane id=":1_20_0" index="0" speed="13.90" length="9.42" width="5.00" shape="402.12,400.25 404.80,401.86 411.03,402.75"/>
    </edge>
    <edge id=":1_5" function="internal">
        <lane id=":1_5_0" index="0" speed="13.90" length="6.46" width="5.00" shape="411.03,392.55 409.28,392.30 408.03,391.55 407.28,390.30 407.03,388.54"/>
    </edge>
    <edge id=":1_6" function="internal">
        <lane id=":1_6_0" index="0" speed="13.90" length="23.31" width="5.00" shape="411.03,392.55 387.72,392.54"/>
        <lane id=":1_6_1" index="1" speed="13.90" length="23.31" width="5.00" shape="411.03,397.65 387.72,397.64"/>
    </edge>
    <edge id=":1_8" function="internal">
        <lane id=":1_8_0" index="0" speed="13.89" length="22.93" width="5.00" shape="411.03,397.65 404.80,398.54 400.36,401.20 397.69,405.64 396.80,411.85"/>
    </edge>
    <edge id=":1_9" function="internal">
        <lane id=":1_9_0" index="0" speed="13.89" length="3.72" width="5.00" shape="411.03,397.65 409.12,398.93 408.48,400.20"/>
    </edge>
    <edge id=":1_21" function="internal">
        <lane id=":1_21_0" index="0" speed="13.89" length="3.72" width="5.00" shape="408.48,400.20 409.12,401.48 411.03,402.75"/>
    </edge>
    <edge id=":1_10" function="internal">
        <lane id=":1_10_0" index="0" speed="13.89" length="6.47" width="5.00" shape="407.00,411.85 407.25,410.10 408.01,408.85 409.27,408.10 411.03,407.85"/>
    </edge>
    <edge id=":1_11" function="internal">
        <lane id=":1_11_0" index="0" speed="13.90" length="23.32" width="5.00" shape="407.00,411.85 407.03,388.54"/>
        <lane id=":1_11_1" index="1" speed="13.90" length="23.32" width="5.00" shape="401.90,411.85 401.93,388.53"/>
    </edge>
    <edge id=":1_13" function="internal">
        <lane id=":1_13_0" index="0" speed="13.90" length="6.67" width="5.00" shape="401.90,411.85 401.01,405.64 400.81,405.30"/>
    </edge>
    <edge id=":1_14" function="internal">
        <lane id=":1_14_0" index="0" speed="13.89" length="3.37" width="5.00" shape="401.90,411.85 400.63,409.94 399.67,409.46"/>
    </edge>
    <edge id=":1_22" function="internal">
        <lane id=":1_22_0" index="0" speed="13.90" length="16.22" width="5.00" shape="400.81,405.30 398.35,401.20 393.92,398.53 387.72,397.64"/>
    </edge>
    <edge id=":1_23" function="internal">
        <lane id=":1_23_0" index="0" speed="13.89" length="4.08" width="5.00" shape="399.67,409.46 399.35,409.30 398.08,409.94 396.80,411.85"/>
    </edge>
    <edge id=":1_15" function="internal">
        <lane id=":1_15_0" index="0" speed="13.90" length="6.46" width="5.00" shape="387.70,407.84 389.45,408.09 390.70,408.84 391.45,410.10 391.70,411.85"/>
    </edge>
    <edge id=":1_16" function="internal">
        <lane id=":1_16_0" index="0" speed="13.90" length="23.32" width="5.00" shape="387.70,407.84 411.03,407.85"/>
        <lane id=":1_16_1" index="1" speed="13.90" length="23.32" width="5.00" shape="387.71,402.74 411.03,402.75"/>
    </edge>
    <edge id=":1_18" function="internal">
        <lane id=":1_18_0" index="0" speed="13.90" length="22.92" width="5.00" shape="387.71,402.74 393.92,401.85 398.36,399.19 401.03,394.75 401.93,388.53"/>
    </edge>
    <edge id=":1_19" function="internal">
        <lane id=":1_19_0" index="0" speed="13.90" length="3.72" width="5.00" shape="387.71,402.74 389.62,401.46 390.26,400.19"/>
    </edge>
    <edge id=":1_24" function="internal">
        <lane id=":1_24_0" index="0" speed="13.90" length="3.72" width="5.00" shape="390.26,400.19 389.63,398.91 387.72,397.64"/>
    </edge>
    <edge id=":2_0" function="internal">
        <lane id=":2_0_0" index="0" speed="13.89" length="6.47" width="5.00" shape="-8.25,-11.40 -8.50,-9.64 -9.26,-8.38 -10.51,-7.63 -12.26,-7.38"/>
    </edge>
    <edge id=":2_1" function="internal">
        <lane id=":2_1_0" index="0" speed="13.90" length="23.35" width="5.00" shape="-8.25,-11.40 -8.25,11.95"/>
        <lane id=":2_1_1" index="1" speed="13.90" length="23.35" width="5.00" shape="-3.15,-11.40 -3.15,11.94"/>
    </edge>
    <edge id=":2_3" function="internal">
        <lane id=":2_3_0" index="0" speed="13.90" length="6.68" width="5.00" shape="-3.15,-11.40 -2.27,-5.17 -2.07,-4.83"/>
    </edge>
    <edge id=":2_4" function="internal">
        <lane id=":2_4_0" index="0" speed="13.89" length="3.37" width="5.00" shape="-3.15,-11.40 -1.88,-9.48 -0.92,-9.00"/>
    </edge>
    <edge id=":2_20" function="internal">
        <lane id=":2_20_0" index="0" speed="13.90" length="16.25" width="5.00" shape="-2.07,-4.83 0.39,-0.73 4.83,1.94 11.05,2.82"/>
    </edge>
    <edge id=":2_21" function="internal">
        <lane id=":2_21_0" index="0" speed="13.89" length="4.08" width="5.00" shape="-0.92,-9.00 -0.61,-8.84 0.67,-9.48 1.95,-11.39"/>
    </edge>
    <edge id=":2_5" function="internal">
        <lane id=":2_5_0" index="0" speed="13.90" length="6.46" width="5.00" shape="11.05,-7.38 9.30,-7.63 8.05,-8.38 7.30,-9.63 7.05,-11.38"/>
    </edge>
    <edge id=":2_6" function="internal">
        <lane id=":2_6_0" index="0" speed="13.90" length="23.31" width="5.00" shape="11.05,-7.38 -12.26,-7.38"/>
        <lane id=":2_6_1" index="1" speed="13.90" length="23.31" width="5.00" shape="11.05,-2.28 -12.26,-2.28"/>
    </edge>
    <edge id=":2_8" function="internal">
        <lane id=":2_8_0" index="0" speed="13.90" length="22.92" width="5.00" shape="11.05,-2.28 4.83,-1.38 0.39,1.28 -2.27,5.73 -3.15,11.94"/>
    </edge>
    <edge id=":2_9" function="internal">
        <lane id=":2_9_0" index="0" speed="13.90" length="3.72" width="5.00" shape="11.05,-2.28 9.14,-1.00 8.50,0.27"/>
    </edge>
    <edge id=":2_22" function="internal">
        <lane id=":2_22_0" index="0" speed="13.90" length="3.72" width="5.00" shape="8.50,0.27 9.14,1.55 11.05,2.82"/>
    </edge>
    <edge id=":2_10" function="internal">
        <lane id=":2_10_0" index="0" speed="13.90" length="6.46" width="5.00" shape="7.05,11.93 7.30,10.18 8.05,8.93 9.30,8.17 11.06,7.92"/>
    </edge>
    <edge id=":2_11" function="internal">
        <lane id=":2_11_0" index="0" speed="13.90" length="23.32" width="5.00" shape="7.05,11.93 7.05,-11.38"/>
        <lane id=":2_11_1" index="1" speed="13.90" length="23.32" width="5.00" shape="1.95,11.94 1.95,-11.39"/>
    </edge>
    <edge id=":2_13" function="internal">
        <lane id=":2_13_0" index="0" speed="13.90" length="13.51" width="5.00" shape="1.95,11.94 1.05,5.72 -1.62,1.28 -3.38,0.22"/>
    </edge>
    <edge id=":2_14" function="internal">
        <lane id=":2_14_0" index="0" speed="13.90" length="7.45" width="5.00" shape="1.95,11.94 0.67,10.03 -0.61,9.39 -1.88,10.03 -3.15,11.94"/>
    </edge>
    <edge id=":2_23" function="internal">
        <lane id=":2_23_0" index="0" speed="13.90" length="9.39" width="5.00" shape="-3.38,0.22 -6.05,-1.39 -12.26,-2.28"/>
    </edge>
    <edge id=":2_15" function="internal">
        <lane id=":2_15_0" index="0" speed="13.90" length="6.49" width="5.00" shape="-12.27,7.92 -10.51,8.17 -9.26,8.93 -8.51,10.19 -8.25,11.95"/>
    </edge>
    <edge id=":2_16" function="internal">
        <lane id=":2_16_0" index="0" speed="13.90" length="23.32" width="5.00" shape="-12.27,7.92 11.06,7.92"/>
        <lane id=":2_16_1" index="1" speed="13.90" length="23.32" width="5.00" shape="-12.26,2.82 11.05,2.82"/>
    </edge>
    <edge id=":2_18" function="internal">
        <lane id=":2_18_0" index="0" speed="13.89" length="22.91" width="5.00" shape="-12.26,2.82 -6.05,1.94 -1.62,-0.73 1.05,-5.17 1.95,-11.39"/>
    </edge>
    <edge id=":2_19" function="internal">
        <lane id=":2_19_0" index="0" speed="13.89" length="3.72" width="5.00" shape="-12.26,2.82 -10.35,1.55 -9.71,0.27"/>
    </edge>
    <edge id=":2_24" function="internal">
        <lane id=":2_24_0" index="0" speed="13.89" length="3.72" width="5.00" shape="-9.71,0.27 -10.35,-1.00 -12.26,-2.28"/>
    </edge>
    <edge id=":3_0" function="internal">
        <lane id=":3_0_0" index="0" speed="13.90" length="6.47" width="5.00" shape="392.86,-11.59 392.61,-9.84 391.86,-8.59 390.60,-7.83 388.84,-7.58"/>
    </edge>
    <edge id=":3_1" function="internal">
        <lane id=":3_1_0" index="0" speed="13.90" length="23.32" width="5.00" shape="392.86,-11.59 392.85,11.72"/>
        <lane id=":3_1_1" index="1" speed="13.90" length="23.32" width="5.00" shape="397.96,-11.60 397.95,11.74"/>
    </edge>
    <edge id=":3_3" function="internal">
        <lane id=":3_3_0" index="0" speed="13.89" length="22.90" width="5.00" shape="397.96,-11.60 398.86,-5.38 401.53,-0.94 405.96,1.72 412.17,2.60"/>
    </edge>
    <edge id=":3_4" function="internal">
        <lane id=":3_4_0" index="0" speed="13.89" length="3.72" width="5.00" shape="397.96,-11.60 399.24,-9.68 400.52,-9.05"/>
    </edge>
    <edge id=":3_20" function="internal">
        <lane id=":3_20_0" index="0" speed="13.89" length="3.72" width="5.00" shape="400.52,-9.05 401.79,-9.69 403.06,-11.60"/>
    </edge>
    <edge id=":3_5" function="internal">
        <lane id=":3_5_0" index="0" speed="13.89" length="6.46" width="5.00" shape="412.17,-7.60 410.42,-7.85 409.17,-8.60 408.42,-9.85 408.16,-11.61"/>
    </edge>
    <edge id=":3_6" function="internal">
        <lane id=":3_6_0" index="0" speed="13.90" length="23.33" width="5.00" shape="412.17,-7.60 388.84,-7.58"/>
        <lane id=":3_6_1" index="1" speed="13.90" length="23.33" width="5.00" shape="412.17,-2.50 388.84,-2.48"/>
    </edge>
    <edge id=":3_8" function="internal">
        <lane id=":3_8_0" index="0" speed="13.90" length="6.67" width="5.00" shape="412.17,-2.50 405.96,-1.60 405.62,-1.40"/>
    </edge>
    <edge id=":3_9" function="internal">
        <lane id=":3_9_0" index="0" speed="13.89" length="3.37" width="5.00" shape="412.17,-2.50 410.26,-1.22 409.78,-0.26"/>
    </edge>
    <edge id=":3_21" function="internal">
        <lane id=":3_21_0" index="0" speed="13.90" length="16.26" width="5.00" shape="405.62,-1.40 401.52,1.07 398.85,5.51 397.95,11.74"/>
    </edge>
    <edge id=":3_22" function="internal">
        <lane id=":3_22_0" index="0" speed="13.89" length="4.08" width="5.00" shape="409.78,-0.26 409.62,0.05 410.26,1.33 412.17,2.60"/>
    </edge>
    <edge id=":3_10" function="internal">
        <lane id=":3_10_0" index="0" speed="13.90" length="6.52" width="5.00" shape="408.15,11.77 408.40,9.99 409.16,8.72 410.42,7.96 412.18,7.70"/>
    </edge>
    <edge id=":3_11" function="internal">
        <lane id=":3_11_0" index="0" speed="13.90" length="23.37" width="5.00" shape="408.15,11.77 408.16,-11.61"/>
        <lane id=":3_11_1" index="1" speed="13.90" length="23.37" width="5.00" shape="403.05,11.75 403.06,-11.60"/>
    </edge>
    <edge id=":3_13" function="internal">
        <lane id=":3_13_0" index="0" speed="13.90" length="22.95" width="5.00" shape="403.05,11.75 402.17,5.52 399.52,1.07 395.07,-1.60 388.84,-2.48"/>
    </edge>
    <edge id=":3_14" function="internal">
        <lane id=":3_14_0" index="0" speed="13.90" length="3.72" width="5.00" shape="403.05,11.75 401.78,9.84 400.50,9.20"/>
    </edge>
    <edge id=":3_23" function="internal">
        <lane id=":3_23_0" index="0" speed="13.90" length="3.72" width="5.00" shape="400.50,9.20 399.23,9.83 397.95,11.74"/>
    </edge>
    <edge id=":3_15" function="internal">
        <lane id=":3_15_0" index="0" speed="13.90" length="6.46" width="5.00" shape="388.85,7.72 390.60,7.97 391.85,8.72 392.60,9.97 392.85,11.72"/>
    </edge>
    <edge id=":3_16" function="internal">
        <lane id=":3_16_0" index="0" speed="13.90" length="23.33" width="5.00" shape="388.85,7.72 412.18,7.70"/>
        <lane id=":3_16_1" index="1" speed="13.90" length="23.33" width="5.00" shape="388.85,2.62 412.17,2.60"/>
    </edge>
    <edge id=":3_18" function="internal">
        <lane id=":3_18_0" index="0" speed="13.90" length="13.49" width="5.00" shape="388.85,2.62 395.07,1.72 399.52,-0.94 400.56,-2.67"/>
    </edge>
    <edge id=":3_19" function="internal">
        <lane id=":3_19_0" index="0" speed="13.90" length="7.45" width="5.00" shape="388.85,2.62 390.76,1.34 391.39,0.07 390.76,-1.21 388.84,-2.48"/>
    </edge>
    <edge id=":3_24" function="internal">
        <lane id=":3_24_0" index="0" speed="13.90" length="9.44" width="5.00" shape="400.56,-2.67 402.18,-5.38 403.06,-11.60"/>
    </edge>

    <edge id="0/0to0/1" from="2" to="0" priority="-1" length="200.00">
        <lane id="0/0to0/1_0" index="0" speed="13.90" length="200.00" width="5.00" shape="-8.25,11.95 -7.68,388.10"/>
        <lane id="0/0to0/1_1" index="1" speed="13.90" length="200.00" width="5.00" shape="-3.15,11.94 -2.58,388.09"/>
    </edge>
    <edge id="0/0to1/0" from="2" to="3" priority="-1">
        <lane id="0/0to1/0_0" index="0" speed="13.90" length="377.79" width="5.00" shape="11.06,7.92 388.85,7.72"/>
        <lane id="0/0to1/0_1" index="1" speed="13.90" length="377.79" width="5.00" shape="11.05,2.82 388.85,2.62"/>
    </edge>
    <edge id="0/1to0/0" from="0" to="2" priority="-1" spreadType="center" shape="5.09,399.74 4.48,0.21">
        <lane id="0/1to0/0_0" index="0" speed="13.90" length="376.14" width="5.00" shape="7.62,388.07 7.05,11.93"/>
        <lane id="0/1to0/0_1" index="1" speed="13.90" length="376.14" width="5.00" shape="2.52,388.08 1.95,11.94"/>
    </edge>
    <edge id="0/1to1/1" from="0" to="1" priority="-1">
        <lane id="0/1to1/1_0" index="0" speed="13.90" length="376.06" width="5.00" shape="11.64,407.41 387.70,407.84"/>
        <lane id="0/1to1/1_1" index="1" speed="13.90" length="376.06" width="5.00" shape="11.65,402.31 387.71,402.74"/>
    </edge>
    <edge id="1/0to0/0" from="3" to="2" priority="-1">
        <lane id="1/0to0/0_0" index="0" speed="13.90" length="377.79" width="5.00" shape="388.84,-7.58 11.05,-7.38"/>
        <lane id="1/0to0/0_1" index="1" speed="13.90" length="377.79" width="5.00" shape="388.84,-2.48 11.05,-2.28"/>
    </edge>
    <edge id="1/0to1/1" from="3" to="1" priority="-1">
        <lane id="1/0to1/1_0" index="0" speed="13.90" length="376.78" width="5.00" shape="392.85,11.72 391.73,388.50"/>
        <lane id="1/0to1/1_1" index="1" speed="13.90" length="376.78" width="5.00" shape="397.95,11.74 396.83,388.51"/>
    </edge>
    <edge id="1/1to0/1" from="1" to="0" priority="-1">
        <lane id="1/1to0/1_0" index="0" speed="13.90" length="376.06" width="5.00" shape="387.72,392.54 11.66,392.11"/>
        <lane id="1/1to0/1_1" index="1" speed="13.90" length="376.06" width="5.00" shape="387.72,397.64 11.65,397.21"/>
    </edge>
    <edge id="1/1to1/0" from="1" to="3" priority="-1">
        <lane id="1/1to1/0_0" index="0" speed="13.90" length="376.78" width="5.00" shape="407.03,388.54 408.15,11.77"/>
        <lane id="1/1to1/0_1" index="1" speed="13.90" length="376.78" width="5.00" shape="401.93,388.53 403.05,11.75"/>
    </edge>
    <edge id="gneE0" from="0" to="gneJ0" priority="1">
        <lane id="gneE0_0" index="0" speed="13.89" length="372.32" width="5.00" shape="-11.68,392.10 -384.00,392.08"/>
        <lane id="gneE0_1" index="1" speed="13.89" length="372.32" width="5.00" shape="-11.68,397.20 -384.00,397.18"/>
    </edge>
    <edge id="gneE10" from="3" to="gneJ7" priority="1">
        <lane id="gneE10_0" index="0" speed="13.89" length="372.66" width="5.00" shape="412.18,7.70 784.83,7.49"/>
        <lane id="gneE10_1" index="1" speed="13.89" length="372.66" width="5.00" shape="412.17,2.60 784.83,2.39"/>
    </edge>
    <edge id="gneE11" from="gneJ7" to="3" priority="1">
        <lane id="gneE11_0" index="0" speed="13.89" length="372.66" width="5.00" shape="784.83,-7.81 412.17,-7.60"/>
        <lane id="gneE11_1" index="1" speed="13.89" length="372.66" width="5.00" shape="784.83,-2.71 412.17,-2.50"/>
    </edge>
    <edge id="gneE13" from="3" to="gneJ10" priority="1">
        <lane id="gneE13_0" index="0" speed="13.89" length="371.73" width="5.00" shape="408.16,-11.61 407.62,-383.34"/>
        <lane id="gneE13_1" index="1" speed="13.89" length="371.73" width="5.00" shape="403.06,-11.60 402.52,-383.33"/>
    </edge>
    <edge id="gneE14" from="gneJ10" to="3" priority="1">
        <lane id="gneE14_0" index="0" speed="13.89" length="371.73" width="5.00" shape="392.32,-383.32 392.86,-11.59"/>
        <lane id="gneE14_1" index="1" speed="13.89" length="371.73" width="5.00" shape="397.42,-383.33 397.96,-11.60"/>
    </edge>
    <edge id="gneE15" from="2" to="gneJ12" priority="1">
        <lane id="gneE15_0" index="0" speed="13.89" length="372.28" width="5.00" shape="7.05,-11.38 7.64,-383.66"/>
        <lane id="gneE15_1" index="1" speed="13.89" length="372.28" width="5.00" shape="1.95,-11.39 2.54,-383.67"/>
    </edge>
    <edge id="gneE16" from="gneJ12" to="2" priority="1">
        <lane id="gneE16_0" index="0" speed="13.89" length="372.28" width="5.00" shape="-7.66,-383.68 -8.25,-11.40"/>
        <lane id="gneE16_1" index="1" speed="13.89" length="372.28" width="5.00" shape="-2.56,-383.67 -3.15,-11.40"/>
    </edge>
    <edge id="gneE17" from="2" to="gneJ13" priority="1">
        <lane id="gneE17_0" index="0" speed="13.89" length="371.74" width="5.00" shape="-12.26,-7.38 -383.99,-7.68"/>
        <lane id="gneE17_1" index="1" speed="13.89" length="371.74" width="5.00" shape="-12.26,-2.28 -384.00,-2.58"/>
    </edge>
    <edge id="gneE18" from="gneJ13" to="2" priority="1">
        <lane id="gneE18_0" index="0" speed="13.89" length="371.74" width="5.00" shape="-384.01,7.62 -12.27,7.92"/>
        <lane id="gneE18_1" index="1" speed="13.89" length="371.74" width="5.00" shape="-384.00,2.52 -12.26,2.82"/>
    </edge>
    <edge id="gneE2" from="gneJ0" to="0" priority="1">
        <lane id="gneE2_0" index="0" speed="13.89" length="372.32" width="5.00" shape="-384.00,407.38 -11.68,407.40"/>
        <lane id="gneE2_1" index="1" speed="13.89" length="372.32" width="5.00" shape="-384.00,402.28 -11.68,402.30"/>
    </edge>
    <edge id="gneE3" from="0" to="gneJ2" priority="1">
        <lane id="gneE3_0" index="0" speed="13.89" length="371.59" width="5.00" shape="-7.66,411.41 -7.67,783.00"/>
        <lane id="gneE3_1" index="1" speed="13.89" length="371.59" width="5.00" shape="-2.56,411.41 -2.57,783.00"/>
    </edge>
    <edge id="gneE4" from="gneJ2" to="0" priority="1">
        <lane id="gneE4_0" index="0" speed="13.89" length="371.59" width="5.00" shape="7.63,783.00 7.64,411.41"/>
        <lane id="gneE4_1" index="1" speed="13.89" length="371.59" width="5.00" shape="2.53,783.00 2.54,411.41"/>
    </edge>
    <edge id="gneE5" from="1" to="gneJ4" priority="1">
        <lane id="gneE5_0" index="0" speed="13.89" length="372.27" width="5.00" shape="411.03,407.85 783.30,407.88"/>
        <lane id="gneE5_1" index="1" speed="13.89" length="372.27" width="5.00" shape="411.03,402.75 783.30,402.78"/>
    </edge>
    <edge id="gneE7" from="1" to="gneJ5" priority="1">
        <lane id="gneE7_0" index="0" speed="13.89" length="371.65" width="5.00" shape="391.70,411.85 391.76,783.50"/>
        <lane id="gneE7_1" index="1" speed="13.89" length="371.65" width="5.00" shape="396.80,411.85 396.86,783.50"/>
    </edge>
    <edge id="gneE8" from="gneJ5" to="1" priority="1">
        <lane id="gneE8_0" index="0" speed="13.89" length="371.65" width="5.00" shape="407.06,783.50 407.00,411.85"/>
        <lane id="gneE8_1" index="1" speed="13.89" length="371.65" width="5.00" shape="401.96,783.50 401.90,411.85"/>
    </edge>
    <edge id="gneE9" from="gneJ4" to="1" priority="1">
        <lane id="gneE9_0" index="0" speed="13.89" length="372.27" width="5.00" shape="783.30,392.58 411.03,392.55"/>
        <lane id="gneE9_1" index="1" speed="13.89" length="372.27" width="5.00" shape="783.30,397.68 411.03,397.65"/>
    </edge>

    <tlLogic id="0" type="static" programID="0" offset="0">
        <phase duration="31" state="rrrrrrrrrrGGGGgGgggg"/>
        <phase duration="4" state="rrrrrrrrrryyyygygggg"/>
        <phase duration="6" state="rrrrrrrrrrrrrrGrGGGG"/>
        <phase duration="4" state="rrrrrrrrrrrrrryryyyy"/>
        <phase duration="31" state="GGGGgGggggrrrrrrrrrr"/>
        <phase duration="4" state="yyyygyggggrrrrrrrrrr"/>
        <phase duration="6" state="rrrrGrGGGGrrrrrrrrrr"/>
        <phase duration="4" state="rrrryryyyyrrrrrrrrrr"/>
    </tlLogic>
    <tlLogic id="1" type="static" programID="0" offset="0">
        <phase duration="31" state="rrrrrGGGGgGggggrrrrr"/>
        <phase duration="4" state="rrrrryyyygyggggrrrrr"/>
        <phase duration="6" state="rrrrrrrrrGrGGGGrrrrr"/>
        <phase duration="4" state="rrrrrrrrryryyyyrrrrr"/>
        <phase duration="31" state="GggggrrrrrrrrrrGGGGg"/>
        <phase duration="4" state="yggggrrrrrrrrrryyyyg"/>
        <phase duration="6" state="rGGGGrrrrrrrrrrrrrrG"/>
        <phase duration="4" state="ryyyyrrrrrrrrrrrrrry"/>
    </tlLogic>
    <tlLogic id="2" type="static" programID="0" offset="0">
        <phase duration="31" state="GggggrrrrrrrrrrGGGGg"/>
        <phase duration="4" state="yggggrrrrrrrrrryyyyg"/>
        <phase duration="6" state="rGGGGrrrrrrrrrrrrrrG"/>
        <phase duration="4" state="ryyyyrrrrrrrrrrrrrry"/>
        <phase duration="31" state="rrrrrGGGGgGggggrrrrr"/>
        <phase duration="4" state="rrrrryyyygyggggrrrrr"/>
        <phase duration="6" state="rrrrrrrrrGrGGGGrrrrr"/>
        <phase duration="4" state="rrrrrrrrryryyyyrrrrr"/>
    </tlLogic>
    <tlLogic id="3" type="static" programID="0" offset="0">
        <phase duration="31" state="GGGGgGggggrrrrrrrrrr"/>
        <phase duration="4" state="yyyygyggggrrrrrrrrrr"/>
        <phase duration="6" state="rrrrGrGGGGrrrrrrrrrr"/>
        <phase duration="4" state="rrrryryyyyrrrrrrrrrr"/>
        <phase duration="31" state="rrrrrrrrrrGGGGgGgggg"/>
        <phase duration="4" state="rrrrrrrrrryyyygygggg"/>
        <phase duration="6" state="rrrrrrrrrrrrrrGrGGGG"/>
        <phase duration="4" state="rrrrrrrrrrrrrryryyyy"/>
    </tlLogic>

    <junction id="0" type="traffic_light" x="-0.01" y="399.75" incLanes="0/0to0/1_0 0/0to0/1_1 1/1to0/1_0 1/1to0/1_1 gneE4_0 gneE4_1 gneE2_0 gneE2_1" intLanes=":0_0_0 :0_1_0 :0_1_1 :0_3_0 :0_20_0 :0_5_0 :0_6_0 :0_6_1 :0_21_0 :0_9_0 :0_10_0 :0_11_0 :0_11_1 :0_13_0 :0_22_0 :0_15_0 :0_16_0 :0_16_1 :0_23_0 :0_24_0" shape="-10.18,388.10 10.12,388.07 11.66,389.61 11.64,409.91 10.14,411.41 -10.16,411.41 -11.68,409.90 -11.68,389.60">
        <request index="0" response="00000010000000000000" foes="10000010000011001100" cont="0"/>
        <request index="1" response="01111010000000000000" foes="01111110000111000000" cont="0"/>
        <request index="2" response="01111010000000000000" foes="01111110000111000000" cont="0"/>
        <request index="3" response="01110001110000000000" foes="01110001111111000011" cont="0"/>
        <request index="4" response="01000001100000100000" foes="01000001100000100000" cont="1"/>
        <request index="5" response="01000001100000000000" foes="01000001100110010000" cont="0"/>
        <request index="6" response="01000011100000001111" foes="11000011100000001111" cont="0"/>
        <request index="7" response="01000011100000001111" foes="11000011100000001111" cont="0"/>
        <request index="8" response="00111011100000001110" foes="00111111100001101110" cont="1"/>
        <request index="9" response="00110000010000001000" foes="00110000010000001000" cont="0"/>