<routes>
        <vType id="typeA" accel="0.8" decel="4.5" sigma="0.8" length="5" minGap="2.5" maxSpeed="20" guiShape="passenger/sedan "/>
        <vType id="typeB" accel="0.8" decel="4.5" sigma="0.6" length="7" minGap="3" maxSpeed="25" guiShape="bus"/>
        <vType id="typeC" accel="0.8" decel="4.5" sigma="0.9" length="3" minGap="1" maxSpeed="15" guiShape="passenger/hatchback"/>

        <route id="right" edges="51o 1i 2o 52i" />
        <route id="right_up" edges="51o 1i 4o 54i" />
        <route id="right_down" edges="51o 1i 3o 53i" />


        <route id="left" edges="52o 2i 1o 51i" />
        <route id="left_down" edges="52o 2i 3o 53i" />
        <route id="left_up" edges="52o 2i 4o 54i" />

        <route id="up" edges="53o 3i 4o 54i" />
        <route id="up_left" edges="53o 3i 1o 51i" />
        <route id="up_right" edges="53o 3i 2o 52i" />

        <route id="down" edges="54o 4i 3o 53i" />
        <route id="down_left" edges="54o 4i 3o 53i" />
        <route id="down_right" edges="54o 4i 1o 51i" />
    <vehicle id="down_right_0" type="typeC" route="down_right" depart="0" />
    <vehicle id="down_1" type="typeC" route="down" depart="1" />
    <vehicle id="left_2" type="typeC" route="left" depart="2" />
    <vehicle id="down_left_3" type="typeC" route="down_left" depart="3" />
    <vehicle id="down_right_4" type="typeC" route="down_right" depart="4" />
    <vehicle id="left_up_5" type="typeC" route="left_up" depart="5" />
    <vehicle id="down_6" type="typeA" route="down" depart="6" />
    <vehicle id="left_up_7" type="typeC" route="left_up" depart="7" />
    <vehicle id="left_down_8" type="typeC" route="left_down" depart="8" />
    <vehicle id="down_right_9" type="typeC" route="down_right" depart="9" />
    <vehicle id="left_10" type="typeC" route="left" depart="10" />
    <vehicle id="down_left_11" type="typeC" route="down_left" depart="11" />
    <vehicle id="up_left_12" type="typeC" route="up_left" depart="12" />
    <vehicle id="down_left_13" type="typeC" route="down_left" depart="13" />
    <vehicle id="left_down_14" type="typeC" route="left_down" depart="14" />
    <vehicle id="left_15" type="typeC" route="left" depart="15" />
    <vehicle id="right_16" type="typeC" route="right" depart="16" />
    <vehicle id="left_up_17" type="typeC" route="left_up" depart="17" />
    <vehicle id="left_down_18" type="typeC" route="left_down" depart="18" />
    <vehicle id="left_up_19" type="typeC" route="left_up" depart="19" />
    <vehicle id="down_right_20" type="typeC" route="down_right" depart="20" />
    <vehicle id="up_right_21" type="typeC" route="up_right" depart="21" />
    <vehicle id="down_22" type="typeC" route="down" depart="22" />
    <vehicle id="up_right_23" type="typeC" route="up_right" depart="23" />
    <vehicle id="up_left_24" type="typeC" route="up_left" depart="24" />
    <vehicle id="down_25" type="typeC" route="down" depart="25" />
    <vehicle id="right_26" type="typeC" route="right" depart="26" />
    <vehicle id="left_down_27" type="typeC" route="left_down" depart="27" />
    <vehicle id="left_28" type="typeC" route="left" depart="28" />
    <vehicle id="up_left_29" type="typeC" route="up_left" depart="29" />
    <vehicle id="left_down_30" type="typeC" route="left_down" depart="30" />
    <vehicle id="left_31" type="typeC" route="left" depart="31" />
    <vehicle id="right_down_32" type="typeC" route="right_down" depart="32" />
    <vehicle id="down_right_33" type="typeC" route="down_right" depart="33" />
    <vehicle id="up_right_34" type="typeC" route="up_right" depart="34" />
    <vehicle id="right_35" type="typeC" route="right" depart="35" />
    <vehicle id="up_right_36" type="typeC" route="up_right" depart="36" />
    <vehicle id="up_left_37" type="typeC" route="up_left" depart="37" />
    <vehicle id="up_38" type="typeC" route="up" depart="38" />
    <vehicle id="down_39" type="typeC" route="down" depart="39" />
    <vehicle id="up_right_40" type="typeC" route="up_right" depart="40" />
    <vehicle id="right_up_41" type="typeC" route="right_up" depart="41" />
    <vehicle id="down_42" type="typeC" route="down" depart="42" />
    <vehicle id="left_up_43" type="typeC" route="left_up" depart="43" />
    <vehicle id="down_right_44" type="typeC" route="down_right" depart="44" />
    <vehicle id="left_down_45" type="typeC" route="left_down" depart="45" />
    <vehicle id="up_46" type="typeC" route="up" depart="46" />
    <vehicle id="up_left_47" type="typeB" route="up_left" depart="47" />
    <vehicle id="left_up_48" type="typeC" route="left_up" depart="48" />
    <vehicle id="right_up_49" type="typeC" route="right_up" depart="49" />
    <vehicle id="left_50" type="typeA" route="left" depart="50" />
    <vehicle id="left_up_51" type="typeC" route="left_up" depart="51" />
    <vehicle id="left_down_52" type="typeC" route="left_down" depart="52" />
    <vehicle id="up_53" type="typeC" route="up" depart="53" />
    <vehicle id="right_54" type="typeC" route="right" depart="54" />
    <vehicle id="up_right_55" type="typeC" route="up_right" depart="55" />
    <vehicle id="down_56" type="typeC" route="down" depart="56" />
    <vehicle id="right_up_57" type="typeC" route="right_up" depart="57" />
    <vehicle id="left_down_58" type="typeC" route="left_down" depart="58" />
    <vehicle id="down_left_59" type="typeC" route="down_left" depart="59" />
    <vehicle id="left_up_60" type="typeC" route="left_up" depart="60" />
    <vehicle id="left_up_61" type="typeC" route="left_up" depart="61" />
    <vehicle id="up_right_62" type="typeA" route="up_right" depart="62" />
    <vehicle id="right_63" type="typeA" route="right" depart="63" />
    <vehicle id="right_down_64" type="typeC" route="right_down" depart="64" />
    <vehicle id="down_right_65" type="typeC" route="down_right" depart="65" />
    <vehicle id="right_66" type="typeC" route="right" depart="66" />
    <vehicle id="up_67" type="typeC" route="up" depart="67" />
    <vehicle id="right_down_68" type="typeC" route="right_down" depart="68" />
    <vehicle id="down_left_69" type="typeC" route="down_left" depart="69" />
    <vehicle id="left_up_70" type="typeC" route="left_up" depart="70" />
    <vehicle id="right_up_71" type="typeC" route="right_up" depart="71" />
    <vehicle id="down_72" type="typeC" route="down" depart="72" />
    <vehicle id="left_73" type="typeC" route="left" depart="73" />
    <vehicle id="up_right_74" type="typeC" route="up_right" depart="74" />
    <vehicle id="left_down_75" type="typeC" route="left_down" depart="75" />
    <vehicle id="left_up_76" type="typeC" route="left_up" depart="76" />
    <vehicle id="down_77" type="typeC" route="down" depart="77" />
    <vehicle id="left_down_78" type="typeC" route="left_down" depart="78" />
    <vehicle id="down_79" type="typeC" route="down" depart="79" />
    <vehicle id="left_down_80" type="typeC" route="left_down" depart="80" />
    <vehicle id="right_up_81" type="typeC" route="right_up" depart="81" />
    <vehicle id="down_right_82" type="typeC" route="down_right" depart="82" />
    <vehicle id="left_83" type="typeC" route="left" depart="83" />
    <vehicle id="down_left_84" type="typeC" route="down_left" depart="84" />
    <vehicle id="left_up_85" type="typeC" route="left_up" depart="85" />
    <vehicle id="right_down_86" type="typeC" route="right_down" depart="86" />
    <vehicle id="down_87" type="typeC" route="down" depart="87" />
    <vehicle id="up_88" type="typeC" route="up" depart="88" />
    <vehicle id="up_89" type="typeC" route="up" depart="89" />
    <vehicle id="left_90" type="typeC" route="left" depart="90" />
    <vehicle id="down_left_91" type="typeC" route="down_left" depart="91" />
    <vehicle id="up_left_92" type="typeC" route="up_left" depart="92" />
    <vehicle id="down_93" type="typeC" route="down" depart="93" />
    <vehicle id="up_94" type="typeC" route="up" depart="94" />
    <vehicle id="up_right_95" type="typeC" route="up_right" depart="95" />
    <vehicle id="right_96" type="typeC" route="right" depart="96" />
    <vehicle id="right_up_97" type="typeC" route="right_up" depart="97" />
    <vehicle id="down_right_98" type="typeC" route="down_right" depart="98" />
    <vehicle id="right_up_99" type="typeC" route="right_up" depart="99" />
    <vehicle id="right_100" type="typeC" route="right" depart="100" />
    <vehicle id="down_left_101" type="typeC" route="down_left" depart="101" />
    <vehicle id="down_102" type="typeC" route="down" depart="102" />
    <vehicle id="down_right_103" type="typeC" route="down_right" depart="103" />
    <vehicle id="right_104" type="typeC" route="right" depart="104" />
    <vehicle id="right_down_105" type="typeC" route="right_down" depart="105" />
    <vehicle id="up_106" type="typeC" route="up" depart="106" />
    <vehicle id="right_107" type="typeC" route="right" depart="107" />
    <vehicle id="left_108" type="typeC" route="left" depart="108" />
    <vehicle id="up_right_109" type="typeC" route="up_right" depart="109" />
    <vehicle id="left_up_110" type="typeC" route="left_up" depart="110" />
    <vehicle id="left_111" type="typeC" route="left" depart="111" />
    <vehicle id="left_down_112" type="typeB" route="left_down" depart="112" />
    <vehicle id="right_up_113" type="typeC" route="right_up" depart="113" />
    <vehicle id="right_114" type="typeC" route="right" depart="114" />
    <vehicle id="down_115" type="typeC" route="down" depart="115" />
    <vehicle id="left_116" type="typeC" route="left" depart="116" />
    <vehicle id="down_left_117" type="typeC" route="down_left" depart="117" />
    <vehicle id="down_118" type="typeC" route="down" depart="118" />
    <vehicle id="left_down_119" type="typeC" route="left_down" depart="119" />
    <vehicle id="left_down_120" type="typeC" route="left_down" depart="120" />
    <vehicle id="right_121" type="typeC" route="right" depart="121" />
    <vehicle id="left_122" type="typeC" route="left" depart="122" />
    <vehicle id="up_left_123" type="typeC" route="up_left" depart="123" />
    <vehicle id="up_right_124" type="typeC" route="up_right" depart="124" />
    <vehicle id="right_down_125" type="typeC" route="right_down" depart="125" />
    <vehicle id="up_126" type="typeC" route="up" depart="126" />
    <vehicle id="right_127" type="typeC" route="right" depart="127" />
    <vehicle id="down_128" type="typeC" route="down" depart="128" />
    <vehicle id="right_129" type="typeC" route="right" depart="129" />
    <vehicle id="right_up_130" type="typeC" route="right_up" depart="130" />
    <vehicle id="down_left_131" type="typeC" route="down_left" depart="131" />
    <vehicle id="left_132" type="typeC" route="left" depart="132" />
    <vehicle id="right_133" type="typeC" route="right" depart="133" />
    <vehicle id="down_right_134" type="typeC" route="down_right" depart="134" />
    <vehicle id="up_right_135" type="typeC" route="up_right" depart="135" />
    <vehicle id="right_136" type="typeC" route="right" depart="136" />
    <vehicle id="down_left_137" type="typeC" route="down_left" depart="137" />
    <vehicle id="left_up_138" type="typeC" route="left_up" depart="138" />
    <vehicle id="left_down_139" type="typeC" route="left_down" depart="139" />
    <vehicle id="down_140" type="typeC" route="down" depart="140" />
    <vehicle id="up_right_141" type="typeC" route="up_right" depart="141" />
    <vehicle id="right_up_142" type="typeC" route="right_up" depart="142" />
    <vehicle id="down_left_143" type="typeC" route="down_left" depart="143" />
    <vehicle id="up_right_144" type="typeC" route="up_right" depart="144" />
    <vehicle id="right_down_145" type="typeA" route="right_down" depart="145" />
    <vehicle id="up_right_146" type="typeC" route="up_right" depart="146" />
    <vehicle id="left_up_147" type="typeC" route="left_up" depart="147" />
    <vehicle id="down_right_148" type="typeC" route="down_right" depart="148" />
    <vehicle id="right_up_149" type="typeC" route="right_up" depart="149" />
    <vehicle id="left_up_150" type="typeC" route="left_up" depart="150" />
    <vehicle id="left_up_151" type="typeC" route="left_up" depart="151" />
    <vehicle id="down_left_152" type="typeC" route="down_left" depart="152" />
    <vehicle id="right_up_153" type="typeC" route="right_up" depart="153" />
    <vehicle id="right_up_154" type="typeC" route="right_up" depart="154" />
    <vehicle id="down_155" type="typeC" route="down" depart="155" />
    <vehicle id="down_left_156" type="typeC" route="down_left" depart="156" />
    <vehicle id="right_up_157" type="typeC" route="right_up" depart="157" />
    <vehicle id="left_down_158" type="typeC" route="left_down" depart="158" />
    <vehicle id="right_159" type="typeC" route="right" depart="159" />
    <vehicle id="right_160" type="typeC" route="right" depart="160" />
    <vehicle id="right_up_161" type="typeC" route="right_up" depart="161" />
    <vehicle id="left_162" type="typeA" route="left" depart="162" />
    <vehicle id="right_163" type="typeC" route="right" depart="163" />
    <vehicle id="right_up_164" type="typeC" route="right_up" depart="164" />
    <vehicle id="up_right_165" type="typeC" route="up_right" depart="165" />
    <vehicle id="down_left_166" type="typeC" route="down_left" depart="166" />
    <vehicle id="right_up_167" type="typeC" route="right_up" depart="167" />
    <vehicle id="right_down_168" type="typeC" route="right_down" depart="168" />
    <vehicle id="up_right_169" type="typeC" route="up_right" depart="169" />
    <vehicle id="down_170" type="typeC" route="down" depart="170" />
    <vehicle id="down_171" type="typeA" route="down" depart="171" />
    <vehicle id="right_up_172" type="typeC" route="right_up" depart="172" />
    <vehicle id="up_right_173" type="typeC" route="up_right" depart="173" />
    <vehicle id="up_left_174" type="typeC" route="up_left" depart="174" />
    <vehicle id="left_up_175" type="typeC" route="left_up" depart="175" />
    <vehicle id="down_left_176" type="typeC" route="down_left" depart="176" />
    <vehicle id="down_177" type="typeC" route="down" depart="177" />
    <vehicle id="up_right_178" type="typeC" route="up_right" depart="178" />
    <vehicle id="up_179" type="typeC" route="up" depart="179" />
    <vehicle id="up_right_180" type="typeC" route="up_right" depart="180" />
    <vehicle id="left_up_181" type="typeC" route="left_up" depart="181" />
    <vehicle id="left_up_182" type="typeC" route="left_up" depart="182" />
    <vehicle id="left_183" type="typeC" route="left" depart="183" />
    <vehicle id="right_184" type="typeA" route="right" depart="184" />
    <vehicle id="left_185" type="typeC" route="left" depart="185" />
    <vehicle id="left_186" type="typeC" route="left" depart="186" />
    <vehicle id="down_right_187" type="typeC" route="down_right" depart="187" />
    <vehicle id="up_right_188" type="typeC" route="up_right" depart="188" />
    <vehicle id="right_up_189" type="typeC" route="right_up" depart="189" />
    <vehicle id="up_right_190" type="typeC" route="up_right" depart="190" />
    <vehicle id="up_left_191" type="typeC" route="up_left" depart="191" />
    <vehicle id="up_right_192" type="typeC" route="up_right" depart="192" />
    <vehicle id="up_193" type="typeC" route="up" depart="193" />
    <vehicle id="left_194" type="typeC" route="left" depart="194" />
    <vehicle id="left_down_195" type="typeC" route="left_down" depart="195" />
    <vehicle id="left_up_196" type="typeC" route="left_up" depart="196" />
    <vehicle id="up_right_197" type="typeA" route="up_right" depart="197" />
    <vehicle id="left_up_198" type="typeC" route="left_up" depart="198" />
    <vehicle id="up_199" type="typeC" route="up" depart="199" />
    <vehicle id="down_200" type="typeC" route="down" depart="200" />
    <vehicle id="right_up_201" type="typeC" route="right_up" depart="201" />
    <vehicle id="down_202" type="typeC" route="down" depart="202" />
    <vehicle id="left_up_203" type="typeC" route="left_up" depart="203" />
    <vehicle id="up_left_204" type="typeC" route="up_left" depart="204" />
    <vehicle id="right_down_205" type="typeC" route="right_down" depart="205" />
    <vehicle id="down_206" type="typeC" route="down" depart="206" />
    <vehicle id="down_right_207" type="typeC" route="down_right" depart="207" />
    <vehicle id="up_208" type="typeC" route="up" depart="208" />
    <vehicle id="down_right_209" type="typeC" route="down_right" depart="209" />
    <vehicle id="left_down_210" type="typeC" route="left_down" depart="210" />
    <vehicle id="left_211" type="typeC" route="left" depart="211" />
    <vehicle id="down_212" type="typeC" route="down" depart="212" />
    <vehicle id="down_right_213" type="typeC" route="down_right" depart="213" />
    <vehicle id="right_down_214" type="typeC" route="right_down" depart="214" />
    <vehicle id="up_215" type="typeC" route="up" depart="215" />
    <vehicle id="right_216" type="typeC" route="right" depart="216" />
    <vehicle id="down_right_217" type="typeC" route="down_right" depart="217" />
    <vehicle id="right_up_218" type="typeC" route="right_up" depart="218" />
    <vehicle id="right_down_219" type="typeC" route="right_down" depart="219" />
    <vehicle id="right_220" type="typeC" route="right" depart="220" />
    <vehicle id="right_221" type="typeC" route="right" depart="221" />
    <vehicle id="left_down_222" type="typeC" route="left_down" depart="222" />
    <vehicle id="left_up_223" type="typeC" route="left_up" depart="223" />
    <vehicle id="left_up_224" type="typeC" route="left_up" depart="224" />
    <vehicle id="left_225" type="typeC" route="left" depart="225" />
    <vehicle id="up_right_226" type="typeC" route="up_right" depart="226" />
    <vehicle id="left_down_227" type="typeC" route="left_down" depart="227" />
    <vehicle id="left_up_228" type="typeC" route="left_up" depart="228" />
    <vehicle id="up_right_229" type="typeC" route="up_right" depart="229" />
    <vehicle id="up_right_230" type="typeC" route="up_right" depart="230" />
    <vehicle id="up_right_231" type="typeC" route="up_right" depart="231" />
    <vehicle id="down_left_232" type="typeC" route="down_left" depart="232" />
    <vehicle id="left_233" type="typeC" route="left" depart="233" />
    <vehicle id="down_right_234" type="typeC" route="down_right" depart="234" />
    <vehicle id="left_up_235" type="typeC" route="left_up" depart="235" />
    <vehicle id="down_236" type="typeC" route="down" depart="236" />
    <vehicle id="right_up_237" type="typeC" route="right_up" depart="237" />
    <vehicle id="left_238" type="typeC" route="left" depart="238" />
    <vehicle id="right_down_239" type="typeC" route="right_down" depart="239" />
    <vehicle id="down_right_240" type="typeC" route="down_right" depart="240" />
    <vehicle id="right_down_241" type="typeC" route="right_down" depart="241" />
    <vehicle id="right_242" type="typeC" route="right" depart="242" />
    <vehicle id="left_243" type="typeC" route="left" depart="243" />
    <vehicle id="left_down_244" type="typeC" route="left_down" depart="244" />
    <vehicle id="down_245" type="typeC" route="down" depart="245" />
    <vehicle id="down_right_246" type="typeC" route="down_right" depart="246" />
    <vehicle id="left_247" type="typeC" route="left" depart="247" />
    <vehicle id="down_left_248" type="typeC" route="down_left" depart="248" />
    <vehicle id="down_left_249" type="typeC" route="down_left" depart="249" />
    <vehicle id="down_right_250" type="typeC" route="down_right" depart="250" />
    <vehicle id="left_up_251" type="typeC" route="left_up" depart="251" />
    <vehicle id="left_down_252" type="typeA" route="left_down" depart="252" />
    <vehicle id="up_253" type="typeC" route="up" depart="253" />
    <vehicle id="up_left_254" type="typeB" route="up_left" depart="254" />
    <vehicle id="up_right_255" type="typeC" route="up_right" depart="255" />
    <vehicle id="up_left_256" type="typeC" route="up_left" depart="256" />
    <vehicle id="right_down_257" type="typeC" route="right_down" depart="257" />
    <vehicle id="down_right_258" type="typeC" route="down_right" depart="258" />
    <vehicle id="left_up_259" type="typeA" route="left_up" depart="259" />
    <vehicle id="up_left_260" type="typeC" route="up_left" depart="260" />
    <vehicle id="right_down_261" type="typeC" route="right_down" depart="261" />
    <vehicle id="right_down_262" type="typeC" route="right_down" depart="262" />
    <vehicle id="down_263" type="typeC" route="down" depart="263" />
    <vehicle id="down_left_264" type="typeA" route="down_left" depart="264" />
    <vehicle id="left_265" type="typeC" route="left" depart="265" />
    <vehicle id="down_266" type="typeC" route="down" depart="266" />
    <vehicle id="right_down_267" type="typeC" route="right_down" depart="267" />
    <vehicle id="left_down_268" type="typeC" route="left_down" depart="268" />
    <vehicle id="down_left_269" type="typeC" route="down_left" depart="269" />
    <vehicle id="right_270" type="typeC" route="right" depart="270" />
    <vehicle id="down_right_271" type="typeC" route="down_right" depart="271" />
    <vehicle id="left_272" type="typeC" route="left" depart="272" />
    <vehicle id="up_left_273" type="typeC" route="up_left" depart="273" />
    <vehicle id="down_right_274" type="typeC" route="down_right" depart="274" />
    <vehicle id="left_down_275" type="typeC" route="left_down" depart="275" />
    <vehicle id="right_down_276" type="typeC" route="right_down" depart="276" />
    <vehicle id="left_down_277" type="typeC" route="left_down" depart="277" />
    <vehicle id="right_278" type="typeC" route="right" depart="278" />
    <vehicle id="up_left_279" type="typeC" route="up_left" depart="279" />
    <vehicle id="up_left_280" type="typeC" route="up_left" depart="280" />
    <vehicle id="up_left_281" type="typeC" route="up_left" depart="281" />
    <vehicle id="right_down_282" type="typeC" route="right_down" depart="282" />
    <vehicle id="right_283" type="typeC" route="right" depart="283" />
    <vehicle id="right_down_284" type="typeC" route="right_down" depart="284" />
    <vehicle id="up_285" type="typeC" route="up" depart="285" />
    <vehicle id="right_286" type="typeC" route="right" depart="286" />
    <vehicle id="right_down_287" type="typeC" route="right_down" depart="287" />
    <vehicle id="up_288" type="typeC" route="up" depart="288" />
    <vehicle id="left_289" type="typeC" route="left" depart="289" />
    <vehicle id="right_up_290" type="typeC" route="right_up" depart="290" />
    <vehicle id="down_left_291" type="typeC" route="down_left" depart="291" />
    <vehicle id="down_292" type="typeC" route="down" depart="292" />
    <vehicle id="left_down_293" type="typeC" route="left_down" depart="293" />
    <vehicle id="down_right_294" type="typeC" route="down_right" depart="294" />
    <vehicle id="down_295" type="typeC" route="down" depart="295" />
    <vehicle id="right_down_296" type="typeC" route="right_down" depart="296" />
    <vehicle id="right_up_297" type="typeC" route="right_up" depart="297" />
    <vehicle id="up_right_298" type="typeC" route="up_right" depart="298" />
    <vehicle id="right_299" type="typeA" route="right" depart="299" />
    <vehicle id="left_300" type="typeC" route="left" depart="300" />
    <vehicle id="right_down_301" type="typeC" route="right_down" depart="301" />
    <vehicle id="left_down_302" type="typeC" route="left_down" depart="302" />
    <vehicle id="right_down_303" type="typeC" route="right_down" depart="303" />
    <vehicle id="down_304" type="typeC" route="down" depart="304" />
    <vehicle id="up_right_305" type="typeC" route="up_right" depart="305" />
    <vehicle id="up_306" type="typeC" route="up" depart="306" />
    <vehicle id="up_307" type="typeC" route="up" depart="307" />
    <vehicle id="up_right_308" type="typeC" route="up_right" depart="308" />
    <vehicle id="up_right_309" type="typeC" route="up_right" depart="309" />
    <vehicle id="down_left_310" type="typeC" route="down_left" depart="310" />
    <vehicle id="down_left_311" type="typeC" route="down_left" depart="311" />
    <vehicle id="right_down_312" type="typeC" route="right_down" depart="312" />
    <vehicle id="down_313" type="typeC" route="down" depart="313" />
    <vehicle id="left_314" type="typeC" route="left" depart="314" />
    <vehicle id="left_up_315" type="typeC" route="left_up" depart="315" />
    <vehicle id="down_left_316" type="typeC" route="down_left" depart="316" />
    <vehicle id="down_317" type="typeC" route="down" depart="317" />
    <vehicle id="down_right_318" type="typeC" route="down_right" depart="318" />
    <vehicle id="up_right_319" type="typeC" route="up_right" depart="319" />
    <vehicle id="left_up_320" type="typeC" route="left_up" depart="320" />
    <vehicle id="down_left_321" type="typeC" route="down_left" depart="321" />
    <vehicle id="up_322" type="typeC" route="up" depart="322" />
    <vehicle id="left_up_323" type="typeC" route="left_up" depart="323" />
    <vehicle id="up_324" type="typeC" route="up" depart="324" />
    <vehicle id="down_right_325" type="typeC" route="down_right" depart="325" />
    <vehicle id="up_326" type="typeC" route="up" depart="326" />
    <vehicle id="up_left_327" type="typeC" route="up_left" depart="327" />
    <vehicle id="left_down_328" type="typeC" route="left_down" depart="328" />
    <vehicle id="down_left_329" type="typeB" route="down_left" depart="329" />
    <vehicle id="up_right_330" type="typeC" route="up_right" depart="330" />
    <vehicle id="down_left_331" type="typeC" route="down_left" depart="331" />
    <vehicle id="left_down_332" type="typeC" route="left_down" depart="332" />
    <vehicle id="down_333" type="typeC" route="down" depart="333" />
    <vehicle id="up_334" type="typeC" route="up" depart="334" />
    <vehicle id="right_up_335" type="typeC" route="right_up" depart="335" />
    <vehicle id="up_right_336" type="typeC" route="up_right" depart="336" />
    <vehicle id="left_down_337" type="typeC" route="left_down" depart="337" />
    <vehicle id="right_338" type="typeC" route="right" depart="338" />
    <vehicle id="down_339" type="typeC" route="down" depart="339" />
    <vehicle id="down_left_340" type="typeC" route="down_left" depart="340" />
    <vehicle id="down_right_341" type="typeC" route="down_right" depart="341" />
    <vehicle id="up_342" type="typeA" route="up" depart="342" />
    <vehicle id="up_right_343" type="typeC" route="up_right" depart="343" />
    <vehicle id="left_344" type="typeC" route="left" depart="344" />
    <vehicle id="up_345" type="typeC" route="up" depart="345" />
    <vehicle id="right_346" type="typeC" route="right" depart="346" />
    <vehicle id="left_down_347" type="typeC" route="left_down" depart="347" />
    <vehicle id="right_348" type="typeC" route="right" depart="348" />
    <vehicle id="left_up_349" type="typeC" route="left_up" depart="349" />
    <vehicle id="right_up_350" type="typeC" route="right_up" depart="350" />
    <vehicle id="down_right_351" type="typeC" route="down_right" depart="351" />
    <vehicle id="up_right_352" type="typeC" route="up_right" depart="352" />
    <vehicle id="left_up_353" type="typeC" route="left_up" depart="353" />
    <vehicle id="down_left_354" type="typeC" route="down_left" depart="354" />
    <vehicle id="left_355" type="typeC" route="left" depart="355" />
    <vehicle id="left_up_356" type="typeC" route="left_up" depart="356" />
    <vehicle id="down_right_357" type="typeC" route="down_right" depart="357" />
    <vehicle id="up_358" type="typeB" route="up" depart="358" />
    <vehicle id="up_right_359" type="typeC" route="up_right" depart="359" />
    <vehicle id="right_360" type="typeC" route="right" depart="360" />
    <vehicle id="left_up_361" type="typeC" route="left_up" depart="361" />
    <vehicle id="right_362" type="typeC" route="right" depart="362" />
    <vehicle id="up_right_363" type="typeC" route="up_right" depart="363" />
    <vehicle id="right_down_364" type="typeB" route="right_down" depart="364" />
    <vehicle id="left_down_365" type="typeC" route="left_down" depart="365" />
    <vehicle id="down_366" type="typeC" route="down" depart="366" />
    <vehicle id="left_down_367" type="typeC" route="left_down" depart="367" />
    <vehicle id="down_left_368" type="typeC" route="down_left" depart="368" />
    <vehicle id="up_right_369" type="typeC" route="up_right" depart="369" />
    <vehicle id="right_up_370" type="typeC" route="right_up" depart="370" />
    <vehicle id="left_371" type="typeC" route="left" depart="371" />
    <vehicle id="right_372" type="typeC" route="right" depart="372" />
    <vehicle id="left_up_373" type="typeC" route="left_up" depart="373" />
    <vehicle id="up_right_374" type="typeC" route="up_right" depart="374" />
    <vehicle id="right_375" type="typeC" route="right" depart="375" />
    <vehicle id="left_up_376" type="typeC" route="left_up" depart="376" />
    <vehicle id="left_down_377" type="typeC" route="left_down" depart="377" />
    <vehicle id="up_left_378" type="typeC" route="up_left" depart="378" />
    <vehicle id="up_left_379" type="typeC" route="up_left" depart="379" />
    <vehicle id="left_down_380" type="typeC" route="left_down" depart="380" />
    <vehicle id="down_381" type="typeC" route="down" depart="381" />
    <vehicle id="right_382" type="typeC" route="right" depart="382" />
    <vehicle id="left_383" type="typeC" route="left" depart="383" />
    <vehicle id="right_384" type="typeC" route="right" depart="384" />
    <vehicle id="down_385" type="typeC" route="down" depart="385" />
    <vehicle id="left_up_386" type="typeC" route="left_up" depart="386" />
    <vehicle id="down_left_387" type="typeC" route="down_left" depart="387" />
    <vehicle id="right_up_388" type="typeC" route="right_up" depart="388" />
    <vehicle id="down_left_389" type="typeC" route="down_left" depart="389" />