<additional>
    <tlLogic id="0" type="static" programID="custom" offset="0">
        <phase duration="500" state="grrrrgrrrrGGGGGgrrrr"/>
        <phase duration="500" state="gGGrrgrrrrgGGrrgrrrr"/>
        <phase duration="5" state="gGGrrgrrrrgYYYYgrrrr"/>
        <phase duration="500" state="GGGGGgrrrrgrrrrgrrrr"/>
        <phase duration="5" state="gYYYYgrrrrgrrrrgrrrr"/>
        <phase duration="500" state="grrrrGGGGGgrrrrgrrrr"/>
        <phase duration="500" state="grrrrgGGrrgrrrrgGGrr"/>
        <phase duration="5" state="grrrrgYYYYgrrrrgGGrr"/>
        <phase duration="500" state="grrrrgrrrrgrrrrGGGGG"/>
        <phase duration="5" state="grrrrgrrrrgrrrrgYYYY"/>
    </tlLogic>
    <tlLogic id="1" type="static" programID="custom" offset="0">
        <phase duration="500" state="grrrrgrrrrGGGGGgrrrr"/>
        <phase duration="500" state="gGGrrgrrrrgGGrrgrrrr"/>
        <phase duration="5" state="gGGrrgrrrrgYYYYgrrrr"/>
        <phase duration="500" state="GGGGGgrrrrgrrrrgrrrr"/>
        <phase duration="5" state="gYYYYgrrrrgrrrrgrrrr"/>
        <phase duration="500" state="grrrrGGGGGgrrrrgrrrr"/>
        <phase duration="500" state="grrrrgGGrrgrrrrgGGrr"/>
        <phase duration="5" state="grrrrgYYYYgrrrrgGGrr"/>
        <phase duration="500" state="grrrrgrrrrgrrrrGGGGG"/>
        <phase duration="5" state="grrrrgrrrrgrrrrgYYYY"/>
    </tlLogic>
    <tlLogic id="2" type="static" programID="custom" offset="0">
        <phase duration="500" state="grrrrgrrrrGGGGGgrrrr"/>
        <phase duration="500" state="gGGrrgrrrrgGGrrgrrrr"/>
        <phase duration="5" state="gGGrrgrrrrgYYYYgrrrr"/>
        <phase duration="500" state="GGGGGgrrrrgrrrrgrrrr"/>
        <phase duration="5" state="gYYYYgrrrrgrrrrgrrrr"/>
        <phase duration="500" state="grrrrGGGGGgrrrrgrrrr"/>
        <phase duration="500" state="grrrrgGGrrgrrrrgGGrr"/>
        <phase duration="5" state="grrrrgYYYYgrrrrgGGrr"/>
        <phase duration="500" state="grrrrgrrrrgrrrrGGGGG"/>
        <phase duration="5" state="grrrrgrrrrgrrrrgYYYY"/>
    </tlLogic>
    <tlLogic id="3" type="static" programID="custom" offset="0">
        <phase duration="500" state="grrrrgrrrrGGGGGgrrrr"/>
        <phase duration="500" state="gGGrrgrrrrgGGrrgrrrr"/>
        <phase duration="5" state="gGGrrgrrrrgYYYYgrrrr"/>
        <phase duration="500" state="GGGGGgrrrrgrrrrgrrrr"/>
        <phase duration="5" state="gYYYYgrrrrgrrrrgrrrr"/>
        <phase duration="500" state="grrrrGGGGGgrrrrgrrrr"/>
        <phase duration="500" state="grrrrgGGrrgrrrrgGGrr"/>
        <phase duration="5" state="grrrrgYYYYgrrrrgGGrr"/>
        <phase duration="500" state="grrrrgrrrrgrrrrGGGGG"/>
        <phase duration="5" state="grrrrgrrrrgrrrrgYYYY"/>
    </tlLogic>
</additional>
