<?xml version="1.0" encoding="UTF-8"?>

<!-- generated on 23-05-2017 17:22:55 by Netedit Version 0.29.0
<?xml version="1.0" encoding="UTF-8"?>

<configuration xmlns:xsi="http://www.w3.org/2001/XMLSchema-instance" xsi:noNamespaceSchemaLocation="http://sumo.dlr.de/xsd/netedit.exeConfiguration.xsd">

    <input>
        <sumo-net-file value="cross.net.xml"/>
    </input>

    <output>
        <output-file value="cross.net.xml"/>
    </output>

    <processing>
        <no-turnarounds value="true"/>
        <offset.disable-normalization value="true"/>
        <lefthand value="true"/>
        <junctions.corner-detail value="0"/>
    </processing>

</configuration>
-->

<net version="0.27" lefthand="true" xmlns:xsi="http://www.w3.org/2001/XMLSchema-instance" xsi:noNamespaceSchemaLocation="http://sumo.dlr.de/xsd/net_file.xsd">

    <location netOffset="0.00,-0.00" convBoundary="-384.00,-383.67,784.83,783.50" origBoundary="0.00,0.00,400.00,400.00" projParameter="!"/>

    <edge id=":0_0" function="internal">
        <lane id=":0_0_0" index="0" speed="13.90" length="5.00" shape="-4.97,391.70 -5.16,393.05 -5.74,394.02 -6.71,394.61 -8.07,394.80"/>
    </edge>
    <edge id=":0_1" function="internal">
        <lane id=":0_1_0" index="0" speed="13.90" length="16.11" shape="-4.97,391.70 -4.96,407.81"/>
        <lane id=":0_1_1" index="1" speed="13.90" length="16.11" shape="-1.67,391.69 -1.66,407.81"/>
    </edge>
    <edge id=":0_3" function="internal">
        <lane id=":0_3_0" index="0" speed="13.90" length="15.66" shape="-1.67,391.69 -1.06,395.94 0.76,398.97 3.80,400.80 8.05,401.41"/>
    </edge>
    <edge id=":0_4" function="internal">
        <lane id=":0_4_0" index="0" speed="13.90" length="2.41" shape="-1.67,391.69 -0.85,392.93 -0.02,393.34"/>
    </edge>
    <edge id=":0_20" function="internal">
        <lane id=":0_20_0" index="0" speed="13.90" length="2.41" shape="-0.02,393.34 0.80,392.93 1.63,391.69"/>
    </edge>
    <edge id=":0_5" function="internal">
        <lane id=":0_5_0" index="0" speed="13.90" length="5.04" shape="8.05,394.81 6.69,394.61 5.71,394.03 5.12,393.05 4.93,391.68"/>
    </edge>
    <edge id=":0_6" function="internal">
        <lane id=":0_6_0" index="0" speed="13.90" length="16.12" shape="8.05,394.81 -8.07,394.80"/>
        <lane id=":0_6_1" index="1" speed="13.90" length="16.12" shape="8.05,398.11 -8.07,398.10"/>
    </edge>
    <edge id=":0_8" function="internal">
        <lane id=":0_8_0" index="0" speed="13.90" length="9.44" shape="8.05,398.11 3.80,398.71 0.77,400.53 -0.06,401.91"/>
    </edge>
    <edge id=":0_9" function="internal">
        <lane id=":0_9_0" index="0" speed="13.90" length="4.82" shape="8.05,398.11 6.81,398.93 6.40,399.76 6.81,400.58 8.05,401.41"/>
    </edge>
    <edge id=":0_21" function="internal">
        <lane id=":0_21_0" index="0" speed="13.90" length="6.21" shape="-0.06,401.91 -1.05,403.56 -1.66,407.81"/>
    </edge>
    <edge id=":0_10" function="internal">
        <lane id=":0_10_0" index="0" speed="13.90" length="5.00" shape="4.94,407.81 5.13,406.45 5.72,405.48 6.68,404.90 8.04,404.71"/>
    </edge>
    <edge id=":0_11" function="internal">
        <lane id=":0_11_0" index="0" speed="13.90" length="16.12" shape="4.94,407.81 4.93,391.68"/>
        <lane id=":0_11_1" index="1" speed="13.90" length="16.12" shape="1.64,407.81 1.63,391.69"/>
    </edge>
    <edge id=":0_13" function="internal">
        <lane id=":0_13_0" index="0" speed="13.89" length="15.66" shape="1.64,407.81 1.03,403.56 -0.79,400.53 -3.82,398.71 -8.07,398.10"/>
    </edge>
    <edge id=":0_14" function="internal">
        <lane id=":0_14_0" index="0" speed="13.89" length="2.41" shape="1.64,407.81 0.81,406.57 -0.01,406.16"/>
    </edge>
    <edge id=":0_22" function="internal">
        <lane id=":0_22_0" index="0" speed="13.89" length="2.41" shape="-0.01,406.16 -0.84,406.57 -1.66,407.81"/>
    </edge>
    <edge id=":0_15" function="internal">
        <lane id=":0_15_0" index="0" speed="13.89" length="5.01" shape="-8.07,404.70 -6.71,404.89 -5.74,405.48 -5.15,406.45 -4.96,407.81"/>
    </edge>
    <edge id=":0_16" function="internal">
        <lane id=":0_16_0" index="0" speed="13.90" length="16.11" shape="-8.07,404.70 8.04,404.71"/>
        <lane id=":0_16_1" index="1" speed="13.90" length="16.11" shape="-8.07,401.40 8.05,401.41"/>
    </edge>
    <edge id=":0_18" function="internal">
        <lane id=":0_18_0" index="0" speed="13.90" length="4.51" shape="-8.07,401.40 -3.82,400.79 -3.64,400.68"/>
    </edge>
    <edge id=":0_19" function="internal">
        <lane id=":0_19_0" index="0" speed="13.89" length="2.20" shape="-8.07,401.40 -6.83,400.57 -6.51,399.94"/>
    </edge>
    <edge id=":0_23" function="internal">
        <lane id=":0_23_0" index="0" speed="13.90" length="11.15" shape="-3.64,400.68 -0.79,398.97 1.03,395.94 1.63,391.69"/>
    </edge>
    <edge id=":0_24" function="internal">
        <lane id=":0_24_0" index="0" speed="13.89" length="2.62" shape="-6.51,399.94 -6.42,399.75 -6.83,398.92 -8.07,398.10"/>
    </edge>
    <edge id=":1_0" function="internal">
        <lane id=":1_0_0" index="0" speed="13.90" length="5.03" shape="394.42,392.12 394.23,393.48 393.64,394.46 392.67,395.05 391.31,395.24"/>
    </edge>
    <edge id=":1_1" function="internal">
        <lane id=":1_1_0" index="0" speed="13.90" length="16.13" shape="394.42,392.12 394.40,408.25"/>
        <lane id=":1_1_1" index="1" speed="13.90" length="16.13" shape="397.72,392.13 397.70,408.25"/>
    </edge>
    <edge id=":1_3" function="internal">
        <lane id=":1_3_0" index="0" speed="13.90" length="9.44" shape="397.72,392.13 398.32,396.38 400.13,399.42 401.51,400.25"/>
    </edge>
    <edge id=":1_4" function="internal">
        <lane id=":1_4_0" index="0" speed="13.90" length="4.82" shape="397.72,392.13 398.55,393.37 399.37,393.78 400.20,393.37 401.02,392.14"/>
    </edge>
    <edge id=":1_20" function="internal">
        <lane id=":1_20_0" index="0" speed="13.90" length="6.23" shape="401.51,400.25 403.17,401.24 407.42,401.85"/>
    </edge>
    <edge id=":1_5" function="internal">
        <lane id=":1_5_0" index="0" speed="13.90" length="5.00" shape="407.42,395.25 406.06,395.06 405.09,394.47 404.51,393.50 404.32,392.15"/>
    </edge>
    <edge id=":1_6" function="internal">
        <lane id=":1_6_0" index="0" speed="13.90" length="16.11" shape="407.42,395.25 391.31,395.24"/>
        <lane id=":1_6_1" index="1" speed="13.90" length="16.11" shape="407.42,398.55 391.31,398.54"/>
    </edge>
    <edge id=":1_8" function="internal">
        <lane id=":1_8_0" index="0" speed="13.89" length="15.66" shape="407.42,398.55 403.17,399.16 400.13,400.98 398.31,404.01 397.70,408.25"/>
    </edge>
    <edge id=":1_9" function="internal">
        <lane id=":1_9_0" index="0" speed="13.89" length="2.41" shape="407.42,398.55 406.18,399.38 405.77,400.20"/>
    </edge>
    <edge id=":1_21" function="internal">
        <lane id=":1_21_0" index="0" speed="13.89" length="2.41" shape="405.77,400.20 406.18,401.03 407.42,401.85"/>
    </edge>
    <edge id=":1_10" function="internal">
        <lane id=":1_10_0" index="0" speed="13.89" length="5.01" shape="404.30,408.25 404.50,406.89 405.08,405.93 406.05,405.34 407.42,405.15"/>
    </edge>
    <edge id=":1_11" function="internal">
        <lane id=":1_11_0" index="0" speed="13.90" length="16.11" shape="404.30,408.25 404.32,392.15"/>
        <lane id=":1_11_1" index="1" speed="13.90" length="16.11" shape="401.00,408.25 401.02,392.14"/>
    </edge>
    <edge id=":1_13" function="internal">
        <lane id=":1_13_0" index="0" speed="13.90" length="4.50" shape="401.00,408.25 400.40,404.01 400.29,403.82"/>
    </edge>
    <edge id=":1_14" function="internal">
        <lane id=":1_14_0" index="0" speed="13.89" length="2.20" shape="401.00,408.25 400.18,407.01 399.54,406.70"/>
    </edge>
    <edge id=":1_22" function="internal">
        <lane id=":1_22_0" index="0" speed="13.90" length="11.14" shape="400.29,403.82 398.58,400.97 395.55,399.15 391.31,398.54"/>
    </edge>
    <edge id=":1_23" function="internal">
        <lane id=":1_23_0" index="0" speed="13.89" length="2.62" shape="399.54,406.70 399.35,406.60 398.53,407.01 397.70,408.25"/>
    </edge>
    <edge id=":1_15" function="internal">
        <lane id=":1_15_0" index="0" speed="13.90" length="5.01" shape="391.30,405.14 392.66,405.34 393.63,405.92 394.21,406.89 394.40,408.25"/>
    </edge>
    <edge id=":1_16" function="internal">
        <lane id=":1_16_0" index="0" speed="13.90" length="16.11" shape="391.30,405.14 407.42,405.15"/>
        <lane id=":1_16_1" index="1" speed="13.90" length="16.11" shape="391.31,401.84 407.42,401.85"/>
    </edge>
    <edge id=":1_18" function="internal">
        <lane id=":1_18_0" index="0" speed="13.90" length="15.66" shape="391.31,401.84 395.55,401.24 398.58,399.42 400.41,396.39 401.02,392.14"/>
    </edge>
    <edge id=":1_19" function="internal">
        <lane id=":1_19_0" index="0" speed="13.90" length="2.41" shape="391.31,401.84 392.54,401.02 392.96,400.19"/>
    </edge>
    <edge id=":1_24" function="internal">
        <lane id=":1_24_0" index="0" speed="13.90" length="2.41" shape="392.96,400.19 392.55,399.37 391.31,398.54"/>
    </edge>
    <edge id=":2_0" function="internal">
        <lane id=":2_0_0" index="0" speed="13.89" length="5.01" shape="-5.56,-7.79 -5.75,-6.43 -6.34,-5.45 -7.30,-4.87 -8.66,-4.68"/>
    </edge>
    <edge id=":2_1" function="internal">
        <lane id=":2_1_0" index="0" speed="13.90" length="16.13" shape="-5.56,-7.79 -5.56,8.34"/>
        <lane id=":2_1_1" index="1" speed="13.90" length="16.13" shape="-2.26,-7.79 -2.26,8.34"/>
    </edge>
    <edge id=":2_3" function="internal">
        <lane id=":2_3_0" index="0" speed="13.90" length="4.51" shape="-2.26,-7.79 -1.66,-3.54 -1.55,-3.35"/>
    </edge>
    <edge id=":2_4" function="internal">
        <lane id=":2_4_0" index="0" speed="13.89" length="2.20" shape="-2.26,-7.79 -1.43,-6.55 -0.80,-6.23"/>
    </edge>
    <edge id=":2_20" function="internal">
        <lane id=":2_20_0" index="0" speed="13.90" length="11.15" shape="-1.55,-3.35 0.16,-0.50 3.19,1.32 7.44,1.93"/>
    </edge>
    <edge id=":2_21" function="internal">
        <lane id=":2_21_0" index="0" speed="13.89" length="2.62" shape="-0.80,-6.23 -0.61,-6.13 0.22,-6.55 1.04,-7.78"/>
    </edge>
    <edge id=":2_5" function="internal">
        <lane id=":2_5_0" index="0" speed="13.90" length="5.00" shape="7.44,-4.67 6.08,-4.87 5.11,-5.45 4.53,-6.42 4.34,-7.78"/>
    </edge>
    <edge id=":2_6" function="internal">
        <lane id=":2_6_0" index="0" speed="13.90" length="16.10" shape="7.44,-4.67 -8.66,-4.68"/>
        <lane id=":2_6_1" index="1" speed="13.90" length="16.10" shape="7.44,-1.37 -8.66,-1.38"/>
    </edge>
    <edge id=":2_8" function="internal">
        <lane id=":2_8_0" index="0" speed="13.90" length="15.66" shape="7.44,-1.37 3.19,-0.77 0.16,1.06 -1.66,4.09 -2.26,8.34"/>
    </edge>
    <edge id=":2_9" function="internal">
        <lane id=":2_9_0" index="0" speed="13.90" length="2.41" shape="7.44,-1.37 6.21,-0.55 5.79,0.28"/>
    </edge>
    <edge id=":2_22" function="internal">
        <lane id=":2_22_0" index="0" speed="13.90" length="2.41" shape="5.79,0.28 6.21,1.10 7.44,1.93"/>
    </edge>
    <edge id=":2_10" function="internal">
        <lane id=":2_10_0" index="0" speed="13.90" length="5.01" shape="4.34,8.33 4.53,6.97 5.12,6.00 6.09,5.42 7.45,5.23"/>
    </edge>
    <edge id=":2_11" function="internal">
        <lane id=":2_11_0" index="0" speed="13.90" length="16.11" shape="4.34,8.33 4.34,-7.78"/>
        <lane id=":2_11_1" index="1" speed="13.90" length="16.11" shape="1.04,8.33 1.04,-7.78"/>
    </edge>
    <edge id=":2_13" function="internal">
        <lane id=":2_13_0" index="0" speed="13.90" length="9.44" shape="1.04,8.33 0.43,4.09 -1.39,1.06 -2.77,0.22"/>
    </edge>
    <edge id=":2_14" function="internal">
        <lane id=":2_14_0" index="0" speed="13.90" length="4.82" shape="1.04,8.33 0.22,7.10 -0.61,6.69 -1.43,7.10 -2.26,8.34"/>
    </edge>
    <edge id=":2_23" function="internal">
        <lane id=":2_23_0" index="0" speed="13.90" length="6.21" shape="-2.77,0.22 -4.42,-0.77 -8.66,-1.38"/>
    </edge>
    <edge id=":2_15" function="internal">
        <lane id=":2_15_0" index="0" speed="13.90" length="5.02" shape="-8.67,5.22 -7.31,5.42 -6.34,6.00 -5.75,6.98 -5.56,8.34"/>
    </edge>
    <edge id=":2_16" function="internal">
        <lane id=":2_16_0" index="0" speed="13.90" length="16.11" shape="-8.67,5.22 7.45,5.23"/>
        <lane id=":2_16_1" index="1" speed="13.90" length="16.11" shape="-8.67,1.92 7.44,1.93"/>
    </edge>
    <edge id=":2_18" function="internal">
        <lane id=":2_18_0" index="0" speed="13.89" length="15.65" shape="-8.67,1.92 -4.42,1.32 -1.39,-0.50 0.43,-3.53 1.04,-7.78"/>
    </edge>
    <edge id=":2_19" function="internal">
        <lane id=":2_19_0" index="0" speed="13.89" length="2.41" shape="-8.67,1.92 -7.43,1.10 -7.01,0.27"/>
    </edge>
    <edge id=":2_24" function="internal">
        <lane id=":2_24_0" index="0" speed="13.89" length="2.41" shape="-7.01,0.27 -7.43,-0.55 -8.66,-1.38"/>
    </edge>
    <edge id=":3_0" function="internal">
        <lane id=":3_0_0" index="0" speed="13.90" length="5.01" shape="395.57,-7.99 395.38,-6.63 394.79,-5.66 393.82,-5.08 392.45,-4.89"/>
    </edge>
    <edge id=":3_1" function="internal">
        <lane id=":3_1_0" index="0" speed="13.90" length="16.11" shape="395.57,-7.99 395.56,8.12"/>
        <lane id=":3_1_1" index="1" speed="13.90" length="16.11" shape="398.87,-7.99 398.86,8.13"/>
    </edge>
    <edge id=":3_3" function="internal">
        <lane id=":3_3_0" index="0" speed="13.89" length="15.65" shape="398.87,-7.99 399.48,-3.75 401.30,-0.72 404.33,1.10 408.58,1.71"/>
    </edge>
    <edge id=":3_4" function="internal">
        <lane id=":3_4_0" index="0" speed="13.89" length="2.41" shape="398.87,-7.99 399.70,-6.76 400.52,-6.35"/>
    </edge>
    <edge id=":3_20" function="internal">
        <lane id=":3_20_0" index="0" speed="13.89" length="2.41" shape="400.52,-6.35 401.35,-6.76 402.17,-8.00"/>
    </edge>
    <edge id=":3_5" function="internal">
        <lane id=":3_5_0" index="0" speed="13.89" length="5.01" shape="408.57,-4.89 407.22,-5.09 406.25,-5.67 405.66,-6.64 405.47,-8.00"/>
    </edge>
    <edge id=":3_6" function="internal">
        <lane id=":3_6_0" index="0" speed="13.90" length="16.12" shape="408.57,-4.89 392.45,-4.89"/>
        <lane id=":3_6_1" index="1" speed="13.90" length="16.12" shape="408.57,-1.59 392.46,-1.59"/>
    </edge>
    <edge id=":3_8" function="internal">
        <lane id=":3_8_0" index="0" speed="13.90" length="4.50" shape="408.57,-1.59 404.33,-0.98 404.15,-0.87"/>
    </edge>
    <edge id=":3_9" function="internal">
        <lane id=":3_9_0" index="0" speed="13.89" length="2.20" shape="408.57,-1.59 407.34,-0.77 407.02,-0.13"/>
    </edge>
    <edge id=":3_21" function="internal">
        <lane id=":3_21_0" index="0" speed="13.90" length="11.17" shape="404.15,-0.87 401.30,0.84 399.47,3.88 398.86,8.13"/>
    </edge>
    <edge id=":3_22" function="internal">
        <lane id=":3_22_0" index="0" speed="13.89" length="2.62" shape="407.02,-0.13 406.92,0.06 407.34,0.88 408.58,1.71"/>
    </edge>
    <edge id=":3_10" function="internal">
        <lane id=":3_10_0" index="0" speed="13.90" length="5.05" shape="405.46,8.15 405.65,6.77 406.24,5.79 407.22,5.20 408.58,5.01"/>
    </edge>
    <edge id=":3_11" function="internal">
        <lane id=":3_11_0" index="0" speed="13.90" length="16.14" shape="405.46,8.15 405.47,-8.00"/>
        <lane id=":3_11_1" index="1" speed="13.90" length="16.14" shape="402.16,8.14 402.17,-8.00"/>
    </edge>
    <edge id=":3_13" function="internal">
        <lane id=":3_13_0" index="0" speed="13.90" length="15.67" shape="402.16,8.14 401.56,3.88 399.75,0.84 396.71,-0.98 392.46,-1.59"/>
    </edge>
    <edge id=":3_14" function="internal">
        <lane id=":3_14_0" index="0" speed="13.90" length="2.41" shape="402.16,8.14 401.33,6.90 400.51,6.48"/>
    </edge>
    <edge id=":3_23" function="internal">
        <lane id=":3_23_0" index="0" speed="13.90" length="2.41" shape="400.51,6.48 399.68,6.89 398.86,8.13"/>
    </edge>
    <edge id=":3_15" function="internal">
        <lane id=":3_15_0" index="0" speed="13.90" length="5.00" shape="392.46,5.01 393.82,5.21 394.79,5.79 395.37,6.76 395.56,8.12"/>
    </edge>
    <edge id=":3_16" function="internal">
        <lane id=":3_16_0" index="0" speed="13.90" length="16.12" shape="392.46,5.01 408.58,5.01"/>
        <lane id=":3_16_1" index="1" speed="13.90" length="16.12" shape="392.46,1.71 408.58,1.71"/>
    </edge>
    <edge id=":3_18" function="internal">
        <lane id=":3_18_0" index="0" speed="13.90" length="9.43" shape="392.46,1.71 396.71,1.11 399.75,-0.72 400.56,-2.08"/>
    </edge>
    <edge id=":3_19" function="internal">
        <lane id=":3_19_0" index="0" speed="13.90" length="4.82" shape="392.46,1.71 393.70,0.89 394.11,0.06 393.69,-0.76 392.46,-1.59"/>
    </edge>
    <edge id=":3_24" function="internal">
        <lane id=":3_24_0" index="0" speed="13.90" length="6.24" shape="400.56,-2.08 401.57,-3.75 402.17,-8.00"/>
    </edge>

    <edge id="0/0to0/1" from="2" to="0" priority="-1" length="200.00">
        <lane id="0/0to0/1_0" index="0" speed="13.90" length="200.00" shape="-5.56,8.34 -4.97,391.70"/>
        <lane id="0/0to0/1_1" index="1" speed="13.90" length="200.00" shape="-2.26,8.34 -1.67,391.69"/>
    </edge>
    <edge id="0/0to1/0" from="2" to="3" priority="-1">
        <lane id="0/0to1/0_0" index="0" speed="13.90" length="385.01" shape="7.45,5.23 392.46,5.01"/>
        <lane id="0/0to1/0_1" index="1" speed="13.90" length="385.01" shape="7.44,1.93 392.46,1.71"/>
    </edge>
    <edge id="0/1to0/0" from="0" to="2" priority="-1">
        <lane id="0/1to0/0_0" index="0" speed="13.90" length="383.35" shape="4.93,391.68 4.34,8.33"/>
        <lane id="0/1to0/0_1" index="1" speed="13.90" length="383.35" shape="1.63,391.69 1.04,8.33"/>
    </edge>
    <edge id="0/1to1/1" from="0" to="1" priority="-1">
        <lane id="0/1to1/1_0" index="0" speed="13.90" length="383.26" shape="8.04,404.71 391.30,405.14"/>
        <lane id="0/1to1/1_1" index="1" speed="13.90" length="383.26" shape="8.05,401.41 391.31,401.84"/>
    </edge>
    <edge id="1/0to0/0" from="3" to="2" priority="-1">
        <lane id="1/0to0/0_0" index="0" speed="13.90" length="385.01" shape="392.45,-4.89 7.44,-4.67"/>
        <lane id="1/0to0/0_1" index="1" speed="13.90" length="385.01" shape="392.46,-1.59 7.44,-1.37"/>
    </edge>
    <edge id="1/0to1/1" from="3" to="1" priority="-1">
        <lane id="1/0to1/1_0" index="0" speed="13.90" length="384.00" shape="395.56,8.12 394.42,392.12"/>
        <lane id="1/0to1/1_1" index="1" speed="13.90" length="384.00" shape="398.86,8.13 397.72,392.13"/>
    </edge>
    <edge id="1/1to0/1" from="1" to="0" priority="-1">
        <lane id="1/1to0/1_0" index="0" speed="13.90" length="383.26" shape="391.31,395.24 8.05,394.81"/>
        <lane id="1/1to0/1_1" index="1" speed="13.90" length="383.26" shape="391.31,398.54 8.05,398.11"/>
    </edge>
    <edge id="1/1to1/0" from="1" to="3" priority="-1">
        <lane id="1/1to1/0_0" index="0" speed="13.90" length="384.00" shape="404.32,392.15 405.46,8.15"/>
        <lane id="1/1to1/0_1" index="1" speed="13.90" length="384.00" shape="401.02,392.14 402.16,8.14"/>
    </edge>
    <edge id="gneE0" from="0" to="gneJ0" priority="1">
        <lane id="gneE0_0" index="0" speed="13.89" length="375.93" shape="-8.07,394.80 -384.00,394.78"/>
        <lane id="gneE0_1" index="1" speed="13.89" length="375.93" shape="-8.07,398.10 -384.00,398.08"/>
    </edge>
    <edge id="gneE10" from="3" to="gneJ7" priority="1">
        <lane id="gneE10_0" index="0" speed="13.89" length="376.26" shape="408.58,5.01 784.83,4.79"/>
        <lane id="gneE10_1" index="1" speed="13.89" length="376.26" shape="408.58,1.71 784.83,1.49"/>
    </edge>
    <edge id="gneE11" from="gneJ7" to="3" priority="1">
        <lane id="gneE11_0" index="0" speed="13.89" length="376.26" shape="784.83,-5.11 408.57,-4.89"/>
        <lane id="gneE11_1" index="1" speed="13.89" length="376.26" shape="784.83,-1.81 408.57,-1.59"/>
    </edge>
    <edge id="gneE13" from="3" to="gneJ10" priority="1">
        <lane id="gneE13_0" index="0" speed="13.89" length="375.33" shape="405.47,-8.00 404.92,-383.34"/>
        <lane id="gneE13_1" index="1" speed="13.89" length="375.33" shape="402.17,-8.00 401.62,-383.33"/>
    </edge>
    <edge id="gneE14" from="gneJ10" to="3" priority="1">
        <lane id="gneE14_0" index="0" speed="13.89" length="375.33" shape="395.02,-383.32 395.57,-7.99"/>
        <lane id="gneE14_1" index="1" speed="13.89" length="375.33" shape="398.32,-383.33 398.87,-7.99"/>
    </edge>
    <edge id="gneE15" from="2" to="gneJ12" priority="1">
        <lane id="gneE15_0" index="0" speed="13.89" length="375.89" shape="4.34,-7.78 4.94,-383.66"/>
        <lane id="gneE15_1" index="1" speed="13.89" length="375.89" shape="1.04,-7.78 1.64,-383.67"/>
    </edge>
    <edge id="gneE16" from="gneJ12" to="2" priority="1">
        <lane id="gneE16_0" index="0" speed="13.89" length="375.89" shape="-4.96,-383.68 -5.56,-7.79"/>
        <lane id="gneE16_1" index="1" speed="13.89" length="375.89" shape="-1.66,-383.67 -2.26,-7.79"/>
    </edge>
    <edge id="gneE17" from="2" to="gneJ13" priority="1">
        <lane id="gneE17_0" index="0" speed="13.89" length="375.34" shape="-8.66,-4.68 -384.00,-4.98"/>
        <lane id="gneE17_1" index="1" speed="13.89" length="375.34" shape="-8.66,-1.38 -384.00,-1.68"/>
    </edge>
    <edge id="gneE18" from="gneJ13" to="2" priority="1">
        <lane id="gneE18_0" index="0" speed="13.89" length="375.34" shape="-384.00,4.92 -8.67,5.22"/>
        <lane id="gneE18_1" index="1" speed="13.89" length="375.34" shape="-384.00,1.62 -8.67,1.92"/>
    </edge>
    <edge id="gneE2" from="gneJ0" to="0" priority="1">
        <lane id="gneE2_0" index="0" speed="13.89" length="375.93" shape="-384.00,404.68 -8.07,404.70"/>
        <lane id="gneE2_1" index="1" speed="13.89" length="375.93" shape="-384.00,401.38 -8.07,401.40"/>
    </edge>
    <edge id="gneE3" from="0" to="gneJ2" priority="1">
        <lane id="gneE3_0" index="0" speed="13.89" length="375.19" shape="-4.96,407.81 -4.97,783.00"/>
        <lane id="gneE3_1" index="1" speed="13.89" length="375.19" shape="-1.66,407.81 -1.67,783.00"/>
    </edge>
    <edge id="gneE4" from="gneJ2" to="0" priority="1">
        <lane id="gneE4_0" index="0" speed="13.89" length="375.19" shape="4.93,783.00 4.94,407.81"/>
        <lane id="gneE4_1" index="1" speed="13.89" length="375.19" shape="1.63,783.00 1.64,407.81"/>
    </edge>
    <edge id="gneE5" from="1" to="gneJ4" priority="1">
        <lane id="gneE5_0" index="0" speed="13.89" length="375.88" shape="407.42,405.15 783.30,405.18"/>
        <lane id="gneE5_1" index="1" speed="13.89" length="375.88" shape="407.42,401.85 783.30,401.88"/>
    </edge>
    <edge id="gneE7" from="1" to="gneJ5" priority="1">
        <lane id="gneE7_0" index="0" speed="13.89" length="375.25" shape="394.40,408.25 394.46,783.50"/>
        <lane id="gneE7_1" index="1" speed="13.89" length="375.25" shape="397.70,408.25 397.76,783.50"/>
    </edge>
    <edge id="gneE8" from="gneJ5" to="1" priority="1">
        <lane id="gneE8_0" index="0" speed="13.89" length="375.25" shape="404.36,783.50 404.30,408.25"/>
        <lane id="gneE8_1" index="1" speed="13.89" length="375.25" shape="401.06,783.50 401.00,408.25"/>
    </edge>
    <edge id="gneE9" from="gneJ4" to="1" priority="1">
        <lane id="gneE9_0" index="0" speed="13.89" length="375.88" shape="783.30,395.28 407.42,395.25"/>
        <lane id="gneE9_1" index="1" speed="13.89" length="375.88" shape="783.30,398.58 407.42,398.55"/>
    </edge>

    <tlLogic id="0" type="static" programID="0" offset="0">
        <phase duration="31" state="rrrrrrrrrrGGGGgGgggg"/>
        <phase duration="4" state="rrrrrrrrrryyyygygggg"/>
        <phase duration="6" state="rrrrrrrrrrrrrrGrGGGG"/>
        <phase duration="4" state="rrrrrrrrrrrrrryryyyy"/>
        <phase duration="31" state="GGGGgGggggrrrrrrrrrr"/>
        <phase duration="4" state="yyyygyggggrrrrrrrrrr"/>
        <phase duration="6" state="rrrrGrGGGGrrrrrrrrrr"/>
        <phase duration="4" state="rrrryryyyyrrrrrrrrrr"/>
    </tlLogic>
    <tlLogic id="1" type="static" programID="0" offset="0">
        <phase duration="31" state="rrrrrGGGGgGggggrrrrr"/>
        <phase duration="4" state="rrrrryyyygyggggrrrrr"/>
        <phase duration="6" state="rrrrrrrrrGrGGGGrrrrr"/>
        <phase duration="4" state="rrrrrrrrryryyyyrrrrr"/>
        <phase duration="31" state="GggggrrrrrrrrrrGGGGg"/>
        <phase duration="4" state="yggggrrrrrrrrrryyyyg"/>
        <phase duration="6" state="rGGGGrrrrrrrrrrrrrrG"/>
        <phase duration="4" state="ryyyyrrrrrrrrrrrrrry"/>
    </tlLogic>
    <tlLogic id="2" type="static" programID="0" offset="0">
        <phase duration="31" state="GggggrrrrrrrrrrGGGGg"/>
        <phase duration="4" state="yggggrrrrrrrrrryyyyg"/>
        <phase duration="6" state="rGGGGrrrrrrrrrrrrrrG"/>
        <phase duration="4" state="ryyyyrrrrrrrrrrrrrry"/>
        <phase duration="31" state="rrrrrGGGGgGggggrrrrr"/>
        <phase duration="4" state="rrrrryyyygyggggrrrrr"/>
        <phase duration="6" state="rrrrrrrrrGrGGGGrrrrr"/>
        <phase duration="4" state="rrrrrrrrryryyyyrrrrr"/>
    </tlLogic>
    <tlLogic id="3" type="static" programID="0" offset="0">
        <phase duration="31" state="GGGGgGggggrrrrrrrrrr"/>
        <phase duration="4" state="yyyygyggggrrrrrrrrrr"/>
        <phase duration="6" state="rrrrGrGGGGrrrrrrrrrr"/>
        <phase duration="4" state="rrrryryyyyrrrrrrrrrr"/>
        <phase duration="31" state="rrrrrrrrrrGGGGgGgggg"/>
        <phase duration="4" state="rrrrrrrrrryyyygygggg"/>
        <phase duration="6" state="rrrrrrrrrrrrrrGrGGGG"/>
        <phase duration="4" state="rrrrrrrrrrrrrryryyyy"/>
    </tlLogic>

    <junction id="0" type="traffic_light" x="-0.01" y="399.75" incLanes="0/0to0/1_0 0/0to0/1_1 1/1to0/1_0 1/1to0/1_1 gneE4_0 gneE4_1 gneE2_0 gneE2_1" intLanes=":0_0_0 :0_1_0 :0_1_1 :0_3_0 :0_20_0 :0_5_0 :0_6_0 :0_6_1 :0_21_0 :0_9_0 :0_10_0 :0_11_0 :0_11_1 :0_13_0 :0_22_0 :0_15_0 :0_16_0 :0_16_1 :0_23_0 :0_24_0" shape="-6.57,391.70 6.53,391.68 8.05,393.21 8.04,406.31 6.54,407.81 -6.56,407.81 -8.07,406.30 -8.07,393.20">
        <request index="0" response="00000010000000000000" foes="10000010000011001100" cont="0"/>
        <request index="1" response="01111010000000000000" foes="01111110000111000000" cont="0"/>
        <request index="2" response="01111010000000000000" foes="01111110000111000000" cont="0"/>
        <request index="3" response="01110001110000000000" foes="01110001111111000011" cont="0"/>
        <request index="4" response="01000001100000100000" foes="01000001100000100000" cont="1"/>
        <request index="5" response="01000001100000000000" foes="01000001100110010000" cont="0"/>
        <request index="6" response="01000011100000001111" foes="11000011100000001111" cont="0"/>
        <request index="7" response="01000011100000001111" foes="11000011100000001111" cont="0"/>
        <request index="8" response="00111011100000001110" foes="00111111100001101110" cont="1"/>
        <request index="9" response="00110000010000001000" foes="00110000010000001000" cont="0"/>
        <request index="10" response="00000000000000000000" foes="00110011001000001000" cont="0"/>
        <request index="11" response="00000000000000000000" foes="01110000000111111000" cont="0"/>
        <request index="12" response="00000000000000000000" foes="01110000000111111000" cont="0"/>
        <request index="13" response="00000000000000000000" foes="11110000110111000111" cont="0"/>
        <request index="14" response="00001000000100000110" foes="00001000000100000110" cont="1"/>
        <request index="15" response="00000000000000000000" foes="01100100000100000110" cont="0"/>
        <request index="16" response="00000011110000000000" foes="00000011111100001110" cont="0"/>
        <request index="17" response="00000011110000000000" foes="00000011111100001110" cont="0"/>
        <request index="18" response="00000011100000000000" foes="00011011100011111110" cont="1"/>
        <request index="19" response="00000010000011000001" foes="00000010000011000001" cont="1"/>
    </junction>
    <junction id="1" type="traffic_light" x="399.35" y="400.20" incLanes="1/0to1/1_0 1/0to1/1_1 gneE9_0 gneE9_1 gneE8_0 gneE8_1 0/1to1/1_0 0/1to1/1_1" intLanes=":1_0_0 :1_1_0 :1_1_1 :1_20_0 :1_4_0 :1_5_0 :1_6_0 :1_6_1 :1_8_0 :1_21_0 :1_10_0 :1_11_0 :1_11_1 :1_22_0 :1_23_0 :1_15_0 :1_16_0 :1_16_1 :1_18_0 :1_24_0" shape="392.82,392.11 405.92,392.15 407.42,393.65 407.42,406.75 405.90,408.25 392.80,408.25 391.30,406.74 391.32,393.64">
        <request index="0" response="00000010000011000000" foes="10000010000011001100" cont="0"/>
        <request index="1" response="01111010000111000000" foes="01111110000111000000" cont="0"/>
        <request index="2" response="01111010000111000000" foes="01111110000111000000" cont="0"/>
        <request index="3" response="01110001110111000000" foes="01110001111111000011" cont="1"/>
        <request index="4" response="01000001100000100000" foes="01000001100000100000" cont="0"/>
        <request index="5" response="00000000000000000000" foes="01000001100110010000" cont="0"/>